MODEL 5
REMARK VINA RESULT:      -6.2      3.161      9.081
REMARK  20 active torsions:
REMARK  status: ('A' for Active; 'I' for Inactive)
REMARK    1  A    between atoms: N_1  and  CA_2 
REMARK    2  A    between atoms: CA_2  and  CB_5 
REMARK    3  A    between atoms: CA_2  and  C_3 
REMARK       I    between atoms: C_3  and  N_25 
REMARK    4  A    between atoms: CB_5  and  CG_6 
REMARK    5  A    between atoms: CG_6  and  CD_7 
REMARK    6  A    between atoms: CD_7  and  CE_8 
REMARK    7  A    between atoms: CE_8  and  NZ_9 
REMARK    8  A    between atoms: N_25  and  CA_26 
REMARK    9  A    between atoms: CA_26  and  CB_29 
REMARK   10  A    between atoms: CA_26  and  C_27 
REMARK       I    between atoms: C_27  and  N_36 
REMARK   11  A    between atoms: CB_29  and  OG_30 
REMARK       I    between atoms: CA_37  and  C_38 
REMARK       I    between atoms: C_38  and  N_50 
REMARK       I    between atoms: N_50  and  CA_51 
REMARK       I    between atoms: CA_51  and  C_52 
REMARK       I    between atoms: CA_51  and  CB_54 
REMARK       I    between atoms: C_52  and  N_71 
REMARK       I    between atoms: CB_54  and  CG_55 
REMARK       I    between atoms: CZ_60  and  OH_61 
REMARK       I    between atoms: N_71  and  CA_72 
REMARK       I    between atoms: CA_72  and  CB_75 
REMARK       I    between atoms: CA_72  and  C_73 
REMARK       I    between atoms: C_73  and  N_88 
REMARK       I    between atoms: CB_75  and  CG_76 
REMARK       I    between atoms: CG_76  and  CD_77 
REMARK       I    between atoms: CD_77  and  NE2_86 
REMARK   12  A    between atoms: N_88  and  CA_89 
REMARK   13  A    between atoms: CA_89  and  C_90 
REMARK   14  A    between atoms: CA_89  and  CB_92 
REMARK       I    between atoms: C_90  and  N_103 
REMARK   15  A    between atoms: CB_92  and  CG_93 
REMARK   16  A    between atoms: CG_93  and  CD_94 
REMARK   17  A    between atoms: N_103  and  CA_104 
REMARK   18  A    between atoms: CA_104  and  CB_107 
REMARK   19  A    between atoms: CA_104  and  C_105 
REMARK   20  A    between atoms: CB_107  and  CG_108 
ROOT
ATOM      1  C   SER A   2      19.334  32.587  77.165  0.60  1.91     0.597 C 
ATOM      2  O   SER A   2      19.102  33.274  78.158 -0.57  1.66    -0.568 OA
ATOM      3  N   PRO A   3      18.946  31.344  77.062 -0.25  1.82    -0.255 N 
ATOM      4  CA  PRO A   3      18.254  30.680  78.123 -0.03  1.91    -0.027 C 
ATOM      5  C   PRO A   3      18.888  30.635  79.478  0.59  1.91     0.590 C 
ATOM      6  O   PRO A   3      18.525  31.464  80.306 -0.57  1.66    -0.575 OA
ATOM      7  CD  PRO A   3      18.887  30.611  75.811  0.02  1.91     0.019 C 
ATOM      8  CB  PRO A   3      17.833  29.313  77.573 -0.01  1.91    -0.007 C 
ATOM      9  CG  PRO A   3      18.625  29.163  76.260  0.02  1.91     0.019 C 
ATOM     10  HG2 PRO A   3      19.477  28.688  76.430  0.02  1.49     0.021 H 
ATOM     11  HA  PRO A   3      17.276  31.056  78.200  0.06  1.39     0.064 H 
ATOM     12  HD3 PRO A   3      18.141  30.934  75.229  0.04  1.39     0.039 H 
ATOM     13  HD2 PRO A   3      19.749  30.667  75.310  0.04  1.39     0.039 H 
ATOM     14  HG3 PRO A   3      18.077  28.681  75.589  0.02  1.49     0.021 H 
ATOM     15  HB3 PRO A   3      16.855  29.282  77.383  0.03  1.49     0.025 H 
ATOM     16  HB2 PRO A   3      18.080  28.578  78.201  0.03  1.49     0.025 H 
ATOM     17  N   TYR A   4      19.764  29.643  79.767 -0.42  1.82    -0.416 N 
ATOM     18  CA  TYR A   4      20.397  29.637  81.063 -0.00  1.91    -0.001 C 
ATOM     19  C   TYR A   4      21.625  30.484  81.180  0.60  1.91     0.597 C 
ATOM     20  O   TYR A   4      21.674  31.439  81.955 -0.57  1.66    -0.568 OA
ATOM     21  CB  TYR A   4      20.793  28.237  81.573 -0.02  1.91    -0.015 C 
ATOM     22  CG  TYR A   4      19.609  27.570  82.196 -0.00  1.91    -0.001 A 
ATOM     23  CD1 TYR A   4      18.609  27.000  81.442 -0.19  1.91    -0.191 A 
ATOM     24  CD2 TYR A   4      19.507  27.515  83.567 -0.19  1.91    -0.191 A 
ATOM     25  CE1 TYR A   4      17.534  26.387  82.047 -0.23  1.91    -0.234 A 
ATOM     26  CE2 TYR A   4      18.437  26.906  84.178 -0.23  1.91    -0.234 A 
ATOM     27  CZ  TYR A   4      17.447  26.337  83.418  0.32  1.91     0.323 A 
ATOM     28  OH  TYR A   4      16.350  25.713  84.050 -0.56  1.72    -0.558 OA
ATOM     29  HA  TYR A   4      19.709  29.973  81.751  0.09  1.39     0.088 H 
ATOM     30  HE1 TYR A   4      16.808  25.973  81.481  0.17  1.46     0.166 H 
ATOM     31  HE2 TYR A   4      18.379  26.878  85.182  0.17  1.46     0.166 H 
ATOM     32  H   TYR A   4      19.910  28.961  79.027  0.27  0.60     0.272 HD
ATOM     33  HD2 TYR A   4      20.228  27.926  84.133  0.17  1.46     0.170 H 
ATOM     34  HD1 TYR A   4      18.660  27.030  80.440  0.17  1.46     0.170 H 
ATOM     35  HB3 TYR A   4      21.493  28.348  82.251  0.03  1.49     0.029 H 
ATOM     36  HB2 TYR A   4      21.093  27.709  80.802  0.03  1.49     0.029 H 
ATOM     37  HH  TYR A   4      16.393  24.740  83.856  0.40  0.00     0.399 HD
ATOM     38  N   GLN A   5      22.641  30.174  80.349 -0.42  1.82    -0.416 N 
ATOM     39  CA  GLN A   5      23.939  30.777  80.478 -0.00  1.91    -0.003 C 
ATOM     40  C   GLN A   5      24.039  31.916  79.534  0.60  1.91     0.597 C 
ATOM     41  O   GLN A   5      23.232  32.051  78.615 -0.57  1.66    -0.568 OA
ATOM     42  CB  GLN A   5      25.108  29.809  80.197 -0.00  1.91    -0.004 C 
ATOM     43  CG  GLN A   5      25.096  29.217  78.786 -0.06  1.91    -0.065 C 
ATOM     44  CD  GLN A   5      24.008  28.149  78.741  0.70  1.91     0.695 C 
ATOM     45  HG2 GLN A   5      24.872  29.922  78.148  0.04  1.49     0.035 H 
ATOM     46  HA  GLN A   5      24.027  31.130  81.415  0.09  1.39     0.085 H 
ATOM     47  HG3 GLN A   5      25.961  28.796  78.611  0.04  1.49     0.035 H 
ATOM     48  H   GLN A   5      22.390  29.470  79.623  0.27  0.60     0.272 HD
ATOM     49  HB3 GLN A   5      25.059  29.054  80.851  0.02  1.49     0.017 H 
ATOM     50  HB2 GLN A   5      25.967  30.303  80.318  0.02  1.49     0.017 H 
ATOM     51 2HE2 GLN A   5      23.015  29.209  77.324  0.43  0.60     0.425 HD
ATOM     52  OE1 GLN A   5      24.071  27.156  79.464 -0.61  1.66    -0.609 OA
ATOM     53  NE2 GLN A   5      22.985  28.352  77.870 -0.94  1.82    -0.941 N 
ATOM     54 1HE2 GLN A   5      22.244  27.679  77.784  0.43  0.60     0.425 HD
ATOM     55  N   GLU A   6      25.038  32.789  79.757 -0.52  1.82    -0.516 N 
ATOM     56  H   GLU A   6      25.654  32.554  80.537  0.29  0.60     0.294 HD
ENDROOT
BRANCH  55  57
ATOM     57  CA  GLU A   6      25.150  33.932  78.911  0.04  1.91     0.040 C 
ATOM     58  HA  GLU A   6      24.448  33.902  78.192  0.11  1.39     0.111 H 
BRANCH  57  59
ATOM     59  C   GLU A   6      26.508  33.941  78.295  0.54  1.91     0.537 C 
ATOM     60  O   GLU A   6      26.646  34.107  77.083 -0.58  1.66    -0.582 OA
ATOM     61  N   PHE A   7      27.553  33.836  79.135 -0.38  1.82    -0.382 N 
ATOM     62  H   PHE A   7      27.288  33.808  80.138  0.27  0.60     0.268 HD
BRANCH  61  63
ATOM     63  CA  PHE A   7      28.894  33.771  78.641 -0.18  1.91    -0.182 C 
ATOM     64  HA  PHE A   7      28.859  33.837  77.653  0.11  1.39     0.110 H 
BRANCH  63  65
ATOM     65  CB  PHE A   7      29.849  34.776  79.317 -0.10  1.91    -0.096 C 
ATOM     66  HB2 PHE A   7      30.005  34.471  80.216  0.04  1.49     0.044 H 
ATOM     67  HB3 PHE A   7      30.630  34.858  78.758  0.04  1.49     0.044 H 
BRANCH  65  68
ATOM     68  CG  PHE A   7      29.148  36.092  79.366  0.06  1.91     0.055 A 
ATOM     69  CD2 PHE A   7      28.869  36.782  78.206 -0.13  1.91    -0.130 A 
ATOM     70  HD2 PHE A   7      29.145  36.396  77.322  0.14  1.46     0.141 H 
ATOM     71  CE2 PHE A   7      28.218  37.993  78.249 -0.18  1.91    -0.185 A 
ATOM     72  CZ  PHE A   7      27.841  38.532  79.455 -0.09  1.91    -0.094 A 
ATOM     73  HE2 PHE A   7      28.017  38.486  77.381  0.15  1.46     0.146 H 
ATOM     74  CE1 PHE A   7      28.114  37.846  80.616 -0.18  1.91    -0.185 A 
ATOM     75  HZ  PHE A   7      27.372  39.415  79.493  0.13  1.46     0.128 H 
ATOM     76  HE1 PHE A   7      27.834  38.228  81.512  0.15  1.46     0.146 H 
ATOM     77  CD1 PHE A   7      28.766  36.637  80.570 -0.13  1.91    -0.130 A 
ATOM     78  HD1 PHE A   7      28.963  36.153  81.421  0.14  1.46     0.141 H 
ENDBRANCH  65  68
ENDBRANCH  63  65
BRANCH  63  79
ATOM     79  C   PHE A   7      29.390  32.364  78.960  0.77  1.91     0.766 C 
ATOM     80  OXT PHE A   7      28.619  31.601  79.602 -0.80  1.66    -0.803 OA
ATOM     81  O   PHE A   7      30.542  32.031  78.572 -0.80  1.66    -0.803 OA
ENDBRANCH  63  79
ENDBRANCH  61  63
ENDBRANCH  57  59
BRANCH  57  82
ATOM     82  CB  GLU A   6      24.942  35.257  79.674  0.06  1.91     0.056 C 
ATOM     83  HB3 GLU A   6      25.822  35.696  79.752 -0.02  1.49    -0.017 H 
ATOM     84  HB2 GLU A   6      24.565  35.034  80.558 -0.02  1.49    -0.017 H 
BRANCH  82  85
ATOM     85  CG  GLU A   6      23.988  36.252  79.006  0.01  1.91     0.014 C 
ATOM     86  HG2 GLU A   6      24.303  37.145  79.192 -0.04  1.49    -0.043 H 
ATOM     87  HG3 GLU A   6      23.913  36.022  78.072 -0.04  1.49    -0.043 H 
BRANCH  85  88
ATOM     88  CD  GLU A   6      22.610  36.102  79.636  0.81  1.91     0.805 C 
ATOM     89  OE1 GLU A   6      21.622  36.608  79.034 -0.82  1.66    -0.819 OA
ATOM     90  OE2 GLU A   6      22.529  35.481  80.728 -0.82  1.66    -0.819 OA
ENDBRANCH  85  88
ENDBRANCH  82  85
ENDBRANCH  57  82
ENDBRANCH  55  57
BRANCH   1  91
ATOM     91  CA  SER A   2      19.978  33.181  75.958 -0.02  1.91    -0.025 C 
ATOM     92  HA  SER A   2      19.734  32.628  75.168  0.08  1.39     0.084 H 
BRANCH  91  93
ATOM     93  N   SER A   2      19.398  34.474  75.810 -0.42  1.82    -0.416 N 
ATOM     94  H   SER A   2      19.783  35.351  76.185  0.27  0.60     0.272 HD
ATOM     95  C   LYS A   1      18.248  34.610  75.130  0.72  1.91     0.721 C 
ATOM     96  O   LYS A   1      17.694  33.663  74.574 -0.60  1.66    -0.601 OA
BRANCH  95  97
ATOM     97  CA  LYS A   1      17.672  35.983  75.087 -0.00  1.91    -0.002 C 
ATOM     98  HA  LYS A   1      18.182  36.548  74.429  0.12  1.10     0.118 H 
BRANCH  97  99
ATOM     99  CB  LYS A   1      17.772  36.566  76.507  0.02  1.91     0.021 C 
ATOM    100  HB3 LYS A   1      17.904  37.548  76.429  0.03  1.49     0.028 H 
ATOM    101  HB2 LYS A   1      18.548  36.145  76.962  0.03  1.49     0.028 H 
BRANCH  99 102
ATOM    102  CG  LYS A   1      16.523  36.314  77.352 -0.00  1.91    -0.005 C 
ATOM    103  HG3 LYS A   1      16.108  35.442  77.067  0.01  1.49     0.012 H 
ATOM    104  HG2 LYS A   1      15.860  37.052  77.181  0.01  1.49     0.012 H 
BRANCH 102 105
ATOM    105  CD  LYS A   1      16.805  36.252  78.854 -0.06  1.91    -0.061 C 
ATOM    106  HD2 LYS A   1      17.774  36.038  78.989  0.06  1.49     0.063 H 
ATOM    107  HD3 LYS A   1      16.604  37.146  79.257  0.06  1.49     0.063 H 
BRANCH 105 108
ATOM    108  CE  LYS A   1      15.974  35.197  79.587 -0.02  1.91    -0.018 C 
ATOM    109  HE2 LYS A   1      15.848  35.489  80.530  0.12  1.10     0.117 H 
ATOM    110  HE3 LYS A   1      15.094  35.112  79.131  0.12  1.10     0.117 H 
BRANCH 108 111
ATOM    111  NZ  LYS A   1      16.680  33.898  79.556 -0.38  1.82    -0.376 N 
ATOM    112  HZ3 LYS A   1      17.370  33.874  80.282  0.34  0.60     0.338 HD
ATOM    113  HZ1 LYS A   1      17.129  33.781  78.669  0.34  0.60     0.338 HD
ATOM    114  HZ2 LYS A   1      16.025  33.156  79.697  0.34  0.60     0.338 HD
ENDBRANCH 108 111
ENDBRANCH 105 108
ENDBRANCH 102 105
ENDBRANCH  99 102
ENDBRANCH  97  99
BRANCH  97 115
ATOM    115  N   LYS A   1      16.261  35.936  74.647  0.10  1.82     0.097 N 
ATOM    116  H3  LYS A   1      15.814  35.143  75.061  0.22  0.60     0.216 HD
ATOM    117  H2  LYS A   1      16.229  35.859  73.652  0.22  0.60     0.216 HD
ATOM    118  H   LYS A   1      15.798  36.773  74.937  0.22  0.60     0.216 HD
ENDBRANCH  97 115
ENDBRANCH  95  97
ENDBRANCH  91  93
BRANCH  91 119
ATOM    119  CB  SER A   2      21.506  33.198  76.141  0.21  1.91     0.212 C 
ATOM    120  HB2 SER A   2      21.778  32.367  76.608  0.04  1.39     0.035 H 
ATOM    121  HB3 SER A   2      21.931  33.256  75.247  0.04  1.39     0.035 H 
BRANCH 119 122
ATOM    122  OG  SER A   2      21.897  34.319  76.917 -0.65  1.72    -0.655 OA
ATOM    123  HG  SER A   2      21.348  35.111  76.657  0.43  0.00     0.427 HD
ENDBRANCH 119 122
ENDBRANCH  91 119
ENDBRANCH   1  91
TORSDOF 31
ENDMDL
