MODEL 5
REMARK VINA RESULT:      -6.1      2.716      7.970
REMARK  20 active torsions:
REMARK  status: ('A' for Active; 'I' for Inactive)
REMARK    1  A    between atoms: N_1  and  CA_2 
REMARK    2  A    between atoms: CA_2  and  C_3 
REMARK    3  A    between atoms: CA_2  and  CB_5 
REMARK       I    between atoms: C_3  and  N_25 
REMARK    4  A    between atoms: CB_5  and  CG_6 
REMARK    5  A    between atoms: CG_6  and  CD_7 
REMARK    6  A    between atoms: CD_7  and  CE_8 
REMARK    7  A    between atoms: CE_8  and  NZ_9 
REMARK    8  A    between atoms: N_25  and  CA_26 
REMARK    9  A    between atoms: CA_26  and  C_27 
REMARK   10  A    between atoms: CA_26  and  CB_29 
REMARK       I    between atoms: C_27  and  N_36 
REMARK   11  A    between atoms: CB_29  and  OG_30 
REMARK       I    between atoms: CA_37  and  C_38 
REMARK       I    between atoms: C_38  and  N_50 
REMARK       I    between atoms: N_50  and  CA_51 
REMARK       I    between atoms: CA_51  and  CB_54 
REMARK       I    between atoms: CA_51  and  C_52 
REMARK       I    between atoms: C_52  and  N_71 
REMARK       I    between atoms: CB_54  and  CG_55 
REMARK       I    between atoms: CZ_60  and  OH_61 
REMARK       I    between atoms: N_71  and  CA_72 
REMARK       I    between atoms: CA_72  and  C_73 
REMARK       I    between atoms: CA_72  and  CB_75 
REMARK       I    between atoms: C_73  and  N_88 
REMARK       I    between atoms: CB_75  and  CG_76 
REMARK       I    between atoms: CG_76  and  CD_77 
REMARK       I    between atoms: CD_77  and  NE2_86 
REMARK   12  A    between atoms: N_88  and  CA_89 
REMARK   13  A    between atoms: CA_89  and  CB_92 
REMARK   14  A    between atoms: CA_89  and  C_90 
REMARK       I    between atoms: C_90  and  N_103 
REMARK   15  A    between atoms: CB_92  and  CG_93 
REMARK   16  A    between atoms: CG_93  and  CD_94 
REMARK   17  A    between atoms: N_103  and  CA_104 
REMARK   18  A    between atoms: CA_104  and  C_105 
REMARK   19  A    between atoms: CA_104  and  CB_107 
REMARK   20  A    between atoms: CB_107  and  CG_108 
ROOT
ATOM      1  C   SER A   2      20.573  30.511  76.636  0.60  1.91     0.597 C 
ATOM      2  O   SER A   2      20.903  30.907  77.751 -0.57  1.66    -0.568 OA
ATOM      3  N   PRO A   3      20.249  31.331  75.686 -0.25  1.82    -0.255 N 
ATOM      4  CA  PRO A   3      20.237  32.729  75.986 -0.03  1.91    -0.027 C 
ATOM      5  C   PRO A   3      19.149  33.025  76.965  0.59  1.91     0.590 C 
ATOM      6  O   PRO A   3      19.177  34.096  77.570 -0.57  1.66    -0.575 OA
ATOM      7  CD  PRO A   3      20.596  31.072  74.298  0.02  1.91     0.019 C 
ATOM      8  CB  PRO A   3      20.116  33.436  74.638 -0.01  1.91    -0.007 C 
ATOM      9  CG  PRO A   3      20.808  32.459  73.666  0.02  1.91     0.019 C 
ATOM     10  HG2 PRO A   3      20.377  32.509  72.774  0.02  1.49     0.021 H 
ATOM     11  HA  PRO A   3      21.133  33.037  76.334  0.06  1.39     0.064 H 
ATOM     12  HD3 PRO A   3      21.439  30.526  74.226  0.04  1.39     0.039 H 
ATOM     13  HD2 PRO A   3      19.859  30.582  73.820  0.04  1.39     0.039 H 
ATOM     14  HG3 PRO A   3      21.774  32.674  73.604  0.02  1.49     0.021 H 
ATOM     15  HB3 PRO A   3      20.594  34.306  74.637  0.03  1.49     0.025 H 
ATOM     16  HB2 PRO A   3      19.167  33.556  74.373  0.03  1.49     0.025 H 
ATOM     17  N   TYR A   4      18.123  32.158  77.053 -0.42  1.82    -0.416 N 
ATOM     18  CA  TYR A   4      17.069  32.363  78.005 -0.00  1.91    -0.001 C 
ATOM     19  C   TYR A   4      17.464  31.896  79.376  0.60  1.91     0.597 C 
ATOM     20  O   TYR A   4      17.111  32.518  80.379 -0.57  1.66    -0.568 OA
ATOM     21  CB  TYR A   4      15.747  31.673  77.646 -0.02  1.91    -0.015 C 
ATOM     22  CG  TYR A   4      14.736  32.408  78.455 -0.00  1.91    -0.001 A 
ATOM     23  CD1 TYR A   4      14.128  33.521  77.920 -0.19  1.91    -0.191 A 
ATOM     24  CD2 TYR A   4      14.414  32.021  79.735 -0.19  1.91    -0.191 A 
ATOM     25  CE1 TYR A   4      13.200  34.234  78.639 -0.23  1.91    -0.234 A 
ATOM     26  CE2 TYR A   4      13.484  32.732  80.460 -0.23  1.91    -0.234 A 
ATOM     27  CZ  TYR A   4      12.875  33.837  79.912  0.32  1.91     0.323 A 
ATOM     28  OH  TYR A   4      11.922  34.570  80.652 -0.56  1.72    -0.558 OA
ATOM     29  HA  TYR A   4      16.867  33.357  78.053  0.09  1.39     0.088 H 
ATOM     30  HE1 TYR A   4      12.758  35.043  78.234  0.17  1.46     0.166 H 
ATOM     31  HE2 TYR A   4      13.248  32.443  81.396  0.17  1.46     0.166 H 
ATOM     32  H   TYR A   4      18.176  31.368  76.389  0.27  0.60     0.272 HD
ATOM     33  HD2 TYR A   4      14.852  31.224  80.140  0.17  1.46     0.170 H 
ATOM     34  HD1 TYR A   4      14.366  33.819  76.989  0.17  1.46     0.170 H 
ATOM     35  HB3 TYR A   4      15.793  30.763  77.942  0.03  1.49     0.029 H 
ATOM     36  HB2 TYR A   4      15.577  31.816  76.713  0.03  1.49     0.029 H 
ATOM     37  HH  TYR A   4      11.068  34.066  80.641  0.40  0.00     0.399 HD
ATOM     38  N   GLN A   5      18.168  30.748  79.457 -0.42  1.82    -0.416 N 
ATOM     39  CA  GLN A   5      18.489  30.176  80.735 -0.00  1.91    -0.003 C 
ATOM     40  C   GLN A   5      19.927  29.788  80.680  0.60  1.91     0.597 C 
ATOM     41  O   GLN A   5      20.269  28.673  80.292 -0.57  1.66    -0.568 OA
ATOM     42  CB  GLN A   5      17.666  28.899  80.967 -0.00  1.91    -0.004 C 
ATOM     43  CG  GLN A   5      16.166  29.147  80.773 -0.06  1.91    -0.065 C 
ATOM     44  CD  GLN A   5      15.409  27.834  80.908  0.70  1.91     0.695 C 
ATOM     45  HG2 GLN A   5      15.856  29.768  81.472  0.04  1.49     0.035 H 
ATOM     46  HA  GLN A   5      18.379  30.881  81.430  0.09  1.39     0.085 H 
ATOM     47  HG3 GLN A   5      16.020  29.510  79.868  0.04  1.49     0.035 H 
ATOM     48  H   GLN A   5      18.437  30.348  78.544  0.27  0.60     0.272 HD
ATOM     49  HB3 GLN A   5      17.809  28.589  81.897  0.02  1.49     0.017 H 
ATOM     50  HB2 GLN A   5      17.951  28.211  80.315  0.02  1.49     0.017 H 
ATOM     51 2HE2 GLN A   5      17.161  26.837  81.139  0.43  0.60     0.425 HD
ATOM     52  OE1 GLN A   5      14.182  27.808  80.832 -0.61  1.66    -0.609 OA
ATOM     53  NE2 GLN A   5      16.152  26.713  81.109 -0.94  1.82    -0.941 N 
ATOM     54 1HE2 GLN A   5      15.709  25.818  81.219  0.43  0.60     0.425 HD
ATOM     55  N   GLU A   6      20.798  30.720  81.096 -0.52  1.82    -0.516 N 
ATOM     56  H   GLU A   6      20.314  31.596  81.452  0.29  0.60     0.294 HD
ENDROOT
BRANCH   1  57
ATOM     57  CA  SER A   2      20.557  29.057  76.322 -0.02  1.91    -0.025 C 
ATOM     58  HA  SER A   2      20.296  28.561  77.139  0.08  1.39     0.084 H 
BRANCH  57  59
ATOM     59  CB  SER A   2      21.954  28.685  75.801  0.21  1.91     0.212 C 
ATOM     60  HB3 SER A   2      22.008  28.921  74.840  0.04  1.39     0.035 H 
ATOM     61  HB2 SER A   2      22.097  27.715  75.937  0.04  1.39     0.035 H 
BRANCH  59  62
ATOM     62  OG  SER A   2      22.948  29.407  76.514 -0.65  1.72    -0.655 OA
ATOM     63  HG  SER A   2      23.315  30.130  75.932  0.43  0.00     0.427 HD
ENDBRANCH  59  62
ENDBRANCH  57  59
BRANCH  57  64
ATOM     64  N   SER A   2      19.526  28.904  75.346 -0.42  1.82    -0.416 N 
ATOM     65  C   LYS A   1      18.562  27.973  75.416  0.72  1.91     0.721 C 
ATOM     66  O   LYS A   1      18.491  27.143  76.321 -0.60  1.66    -0.601 OA
ATOM     67  H   SER A   2      19.442  29.515  74.487  0.27  0.60     0.272 HD
BRANCH  65  68
ATOM     68  CA  LYS A   1      17.577  27.996  74.298 -0.00  1.91    -0.002 C 
ATOM     69  HA  LYS A   1      17.776  27.246  73.650  0.12  1.10     0.118 H 
BRANCH  68  70
ATOM     70  N   LYS A   1      16.198  27.811  74.794  0.10  1.82     0.097 N 
ATOM     71  H   LYS A   1      15.714  27.177  74.192  0.22  0.60     0.216 HD
ATOM     72  H3  LYS A   1      15.729  28.694  74.800  0.22  0.60     0.216 HD
ATOM     73  H2  LYS A   1      16.228  27.439  75.721  0.22  0.60     0.216 HD
ENDBRANCH  68  70
BRANCH  68  74
ATOM     74  CB  LYS A   1      17.730  29.324  73.535  0.02  1.91     0.021 C 
ATOM     75  HB3 LYS A   1      17.387  29.192  72.613  0.03  1.49     0.028 H 
ATOM     76  HB2 LYS A   1      18.693  29.562  73.518  0.03  1.49     0.028 H 
BRANCH  74  77
ATOM     77  CG  LYS A   1      16.960  30.479  74.176 -0.00  1.91    -0.005 C 
ATOM     78  HG3 LYS A   1      17.269  30.584  75.131  0.01  1.49     0.012 H 
ATOM     79  HG2 LYS A   1      15.978  30.245  74.191  0.01  1.49     0.012 H 
BRANCH  77  80
ATOM     80  CD  LYS A   1      17.132  31.815  73.457 -0.06  1.91    -0.061 C 
ATOM     81  HD3 LYS A   1      16.747  31.739  72.539  0.06  1.49     0.063 H 
ATOM     82  HD2 LYS A   1      18.106  32.025  73.398  0.06  1.49     0.063 H 
BRANCH  80  83
ATOM     83  CE  LYS A   1      16.432  32.968  74.178 -0.02  1.91    -0.018 C 
ATOM     84  HE3 LYS A   1      16.915  33.152  75.029  0.12  1.10     0.117 H 
ATOM     85  HE2 LYS A   1      15.492  32.701  74.367  0.12  1.10     0.117 H 
BRANCH  83  86
ATOM     86  NZ  LYS A   1      16.449  34.173  73.324 -0.38  1.82    -0.376 N 
ATOM     87  HZ1 LYS A   1      16.305  33.911  72.368  0.34  0.60     0.338 HD
ATOM     88  HZ3 LYS A   1      15.720  34.798  73.608  0.34  0.60     0.338 HD
ATOM     89  HZ2 LYS A   1      17.333  34.635  73.411  0.34  0.60     0.338 HD
ENDBRANCH  83  86
ENDBRANCH  80  83
ENDBRANCH  77  80
ENDBRANCH  74  77
ENDBRANCH  68  74
ENDBRANCH  65  68
ENDBRANCH  57  64
ENDBRANCH   1  57
BRANCH  55  90
ATOM     90  CA  GLU A   6      22.218  30.567  81.072  0.04  1.91     0.040 C 
ATOM     91  HA  GLU A   6      22.561  30.359  81.966  0.11  1.39     0.111 H 
BRANCH  90  92
ATOM     92  CB  GLU A   6      22.707  29.578  80.004  0.06  1.91     0.056 C 
ATOM     93  HB2 GLU A   6      21.948  29.008  79.756 -0.02  1.49    -0.017 H 
ATOM     94  HB3 GLU A   6      23.051  30.099  79.248 -0.02  1.49    -0.017 H 
BRANCH  92  95
ATOM     95  CG  GLU A   6      23.832  28.667  80.488  0.01  1.91     0.014 C 
ATOM     96  HG3 GLU A   6      23.454  27.815  80.725 -0.04  1.49    -0.043 H 
ATOM     97  HG2 GLU A   6      24.317  29.125  81.180 -0.04  1.49    -0.043 H 
BRANCH  95  98
ATOM     98  CD  GLU A   6      24.776  28.450  79.321  0.81  1.91     0.805 C 
ATOM     99  OE2 GLU A   6      25.186  27.278  79.124 -0.82  1.66    -0.819 OA
ATOM    100  OE1 GLU A   6      25.098  29.442  78.613 -0.82  1.66    -0.819 OA
ENDBRANCH  95  98
ENDBRANCH  92  95
ENDBRANCH  90  92
BRANCH  90 101
ATOM    101  C   GLU A   6      22.678  31.921  80.643  0.54  1.91     0.537 C 
ATOM    102  N   PHE A   7      23.530  31.976  79.599 -0.38  1.82    -0.382 N 
ATOM    103  H   PHE A   7      23.787  31.050  79.213  0.27  0.60     0.268 HD
ATOM    104  O   GLU A   6      22.281  32.932  81.215 -0.58  1.66    -0.582 OA
BRANCH 102 105
ATOM    105  CA  PHE A   7      24.012  33.235  79.102 -0.18  1.91    -0.182 C 
ATOM    106  HA  PHE A   7      23.745  33.942  79.761  0.11  1.39     0.110 H 
BRANCH 105 107
ATOM    107  C   PHE A   7      23.299  33.561  77.804  0.77  1.91     0.766 C 
ATOM    108  OXT PHE A   7      23.493  32.810  76.810 -0.80  1.66    -0.803 OA
ATOM    109  O   PHE A   7      22.530  34.559  77.796 -0.80  1.66    -0.803 OA
ENDBRANCH 105 107
BRANCH 105 110
ATOM    110  CB  PHE A   7      25.519  33.279  78.772 -0.10  1.91    -0.096 C 
ATOM    111  HB2 PHE A   7      26.000  32.901  79.542  0.04  1.49     0.044 H 
ATOM    112  HB3 PHE A   7      25.656  32.754  77.953  0.04  1.49     0.044 H 
BRANCH 110 113
ATOM    113  CG  PHE A   7      26.015  34.668  78.537  0.06  1.91     0.055 A 
ATOM    114  CD2 PHE A   7      26.708  34.963  77.382 -0.13  1.91    -0.130 A 
ATOM    115  HD2 PHE A   7      26.868  34.235  76.703  0.14  1.46     0.141 H 
ATOM    116  CE2 PHE A   7      27.186  36.230  77.142 -0.18  1.91    -0.185 A 
ATOM    117  CZ  PHE A   7      26.990  37.222  78.072 -0.09  1.91    -0.094 A 
ATOM    118  HE2 PHE A   7      27.681  36.425  76.276  0.15  1.46     0.146 H 
ATOM    119  CE1 PHE A   7      26.307  36.937  79.230 -0.18  1.91    -0.185 A 
ATOM    120  HZ  PHE A   7      27.341  38.146  77.911  0.13  1.46     0.128 H 
ATOM    121  CD1 PHE A   7      25.830  35.667  79.464 -0.13  1.91    -0.130 A 
ATOM    122  HE1 PHE A   7      26.148  37.663  79.921  0.15  1.46     0.146 H 
ATOM    123  HD1 PHE A   7      25.347  35.474  80.317  0.14  1.46     0.141 H 
ENDBRANCH 110 113
ENDBRANCH 105 110
ENDBRANCH 102 105
ENDBRANCH  90 101
ENDBRANCH  55  90
TORSDOF 31
ENDMDL
