REMARK  20 active torsions:
REMARK  status: ('A' for Active; 'I' for Inactive)
REMARK    1  A    between atoms: N_1  and  CA_2 
REMARK    2  A    between atoms: CA_2  and  C_3 
REMARK    3  A    between atoms: CA_2  and  CB_5 
REMARK       I    between atoms: C_3  and  N_25 
REMARK    4  A    between atoms: CB_5  and  CG_6 
REMARK    5  A    between atoms: CG_6  and  CD_7 
REMARK    6  A    between atoms: CD_7  and  CE_8 
REMARK    7  A    between atoms: CE_8  and  NZ_9 
REMARK    8  A    between atoms: N_25  and  CA_26 
REMARK    9  A    between atoms: CA_26  and  CB_29 
REMARK   10  A    between atoms: CA_26  and  C_27 
REMARK       I    between atoms: C_27  and  N_36 
REMARK   11  A    between atoms: CB_29  and  OG_30 
REMARK       I    between atoms: CA_37  and  C_38 
REMARK       I    between atoms: C_38  and  N_50 
REMARK       I    between atoms: N_50  and  CA_51 
REMARK       I    between atoms: CA_51  and  C_52 
REMARK       I    between atoms: CA_51  and  CB_54 
REMARK       I    between atoms: C_52  and  N_71 
REMARK       I    between atoms: CB_54  and  CG_55 
REMARK       I    between atoms: CZ_60  and  OH_61 
REMARK       I    between atoms: N_71  and  CA_72 
REMARK       I    between atoms: CA_72  and  C_73 
REMARK       I    between atoms: CA_72  and  CB_75 
REMARK       I    between atoms: C_73  and  N_88 
REMARK       I    between atoms: CB_75  and  CG_76 
REMARK       I    between atoms: CG_76  and  CD_77 
REMARK       I    between atoms: CD_77  and  NE2_86 
REMARK   12  A    between atoms: N_88  and  CA_89 
REMARK   13  A    between atoms: CA_89  and  CB_92 
REMARK   14  A    between atoms: CA_89  and  C_90 
REMARK       I    between atoms: C_90  and  N_103 
REMARK   15  A    between atoms: CB_92  and  CG_93 
REMARK   16  A    between atoms: CG_93  and  CD_94 
REMARK   17  A    between atoms: N_103  and  CA_104 
REMARK   18  A    between atoms: CA_104  and  CB_107 
REMARK   19  A    between atoms: CA_104  and  C_105 
REMARK   20  A    between atoms: CB_107  and  CG_108 
ROOT
ATOM      1  C   SER A   2      17.665  28.920  73.944  0.60  1.91     0.597 C 
ATOM      2  O   SER A   2      18.288  28.486  74.909 -0.57  1.66    -0.568 OA
ATOM      3  N   PRO A   3      18.027  30.020  73.362 -0.25  1.82    -0.255 NA
ATOM      4  CA  PRO A   3      19.040  30.729  74.088 -0.03  1.91    -0.027 C 
ATOM      5  C   PRO A   3      18.766  31.279  75.454  0.59  1.91     0.590 C 
ATOM      6  O   PRO A   3      18.811  30.477  76.382 -0.57  1.66    -0.575 OA
ATOM      7  CD  PRO A   3      18.394  29.899  71.975  0.02  1.91     0.019 C 
ATOM      8  CB  PRO A   3      19.848  31.524  73.100 -0.01  1.91    -0.007 C 
ATOM      9  CG  PRO A   3      19.776  30.543  71.916  0.02  1.91     0.019 C 
ATOM     10  HG2 PRO A   3      19.902  31.042  71.057  0.02  1.49     0.021 H 
ATOM     11  HA  PRO A   3      19.926  30.146  74.114  0.06  1.39     0.064 H 
ATOM     12  HD3 PRO A   3      18.443  28.940  71.686  0.04  1.39     0.039 H 
ATOM     13  HD2 PRO A   3      17.755  30.388  71.378  0.04  1.39     0.039 H 
ATOM     14  HG3 PRO A   3      20.497  29.854  72.006  0.02  1.49     0.021 H 
ATOM     15  HB3 PRO A   3      20.777  31.634  73.381  0.03  1.49     0.025 H 
ATOM     16  HB2 PRO A   3      19.415  32.365  72.857  0.03  1.49     0.025 H 
ATOM     17  N   TYR A   4      18.585  32.605  75.680 -0.42  1.82    -0.416 N 
ATOM     18  CA  TYR A   4      18.161  32.872  77.031 -0.00  1.91    -0.001 C 
ATOM     19  C   TYR A   4      16.683  32.826  77.242  0.60  1.91     0.597 C 
ATOM     20  O   TYR A   4      16.101  31.826  77.660 -0.57  1.66    -0.568 OA
ATOM     21  CB  TYR A   4      18.549  34.258  77.583 -0.02  1.91    -0.015 C 
ATOM     22  CG  TYR A   4      19.831  34.220  78.339 -0.00  1.91    -0.001 A 
ATOM     23  CD1 TYR A   4      21.039  33.970  77.733 -0.19  1.91    -0.191 A 
ATOM     24  CD2 TYR A   4      19.802  34.478  79.691 -0.19  1.91    -0.191 A 
ATOM     25  CE1 TYR A   4      22.195  33.960  78.478 -0.23  1.91    -0.234 A 
ATOM     26  CE2 TYR A   4      20.952  34.470  80.439 -0.23  1.91    -0.234 A 
ATOM     27  CZ  TYR A   4      22.152  34.209  79.829  0.32  1.91     0.323 A 
ATOM     28  OH  TYR A   4      23.340  34.199  80.588 -0.56  1.72    -0.558 OA
ATOM     29  HA  TYR A   4      18.596  32.171  77.643  0.09  1.39     0.088 H 
ATOM     30  HE1 TYR A   4      23.080  33.770  78.031  0.17  1.46     0.166 H 
ATOM     31  HE2 TYR A   4      20.917  34.653  81.425  0.17  1.46     0.166 H 
ATOM     32  H   TYR A   4      18.748  33.226  74.951  0.27  0.60     0.272 HD
ATOM     33  HD2 TYR A   4      18.925  34.676  80.136  0.17  1.46     0.170 H 
ATOM     34  HD1 TYR A   4      21.081  33.794  76.750  0.17  1.46     0.170 H 
ATOM     35  HB3 TYR A   4      17.823  34.555  78.189  0.03  1.49     0.029 H 
ATOM     36  HB2 TYR A   4      18.643  34.874  76.813  0.03  1.49     0.029 H 
ATOM     37  HH  TYR A   4      23.271  33.474  81.263  0.40  0.00     0.399 HD
ATOM     38  N   GLN A   5      16.052  33.976  76.902 -0.42  1.82    -0.416 N 
ATOM     39  CA  GLN A   5      14.656  34.169  77.155 -0.00  1.91    -0.003 C 
ATOM     40  C   GLN A   5      13.790  33.657  76.059  0.60  1.91     0.597 C 
ATOM     41  O   GLN A   5      12.966  32.766  76.254 -0.57  1.66    -0.568 OA
ATOM     42  CB  GLN A   5      14.285  35.634  77.479 -0.00  1.91    -0.004 C 
ATOM     43  CG  GLN A   5      14.515  36.668  76.371 -0.06  1.91    -0.065 C 
ATOM     44  CD  GLN A   5      15.973  37.130  76.357  0.70  1.91     0.695 C 
ATOM     45  HG2 GLN A   5      14.308  36.251  75.499  0.04  1.49     0.035 H 
ATOM     46  HA  GLN A   5      14.419  33.663  78.010  0.09  1.39     0.085 H 
ATOM     47  HG3 GLN A   5      13.936  37.451  76.542  0.04  1.49     0.035 H 
ATOM     48  H   GLN A   5      16.676  34.675  76.453  0.27  0.60     0.272 HD
ATOM     49  HB3 GLN A   5      14.819  35.925  78.288  0.02  1.49     0.017 H 
ATOM     50  HB2 GLN A   5      13.306  35.664  77.731  0.02  1.49     0.017 H 
ATOM     51 2HE2 GLN A   5      15.427  38.820  75.369  0.43  0.60     0.425 HD
ATOM     52  OE1 GLN A   5      16.870  36.453  76.849 -0.61  1.66    -0.609 OA
ATOM     53  NE2 GLN A   5      16.222  38.330  75.767 -0.94  1.82    -0.941 N 
ATOM     54 1HE2 GLN A   5      17.159  38.699  75.736  0.43  0.60     0.425 HD
ATOM     55  N   GLU A   6      14.017  34.183  74.843 -0.52  1.82    -0.516 N 
ATOM     56  H   GLU A   6      14.793  34.871  74.817  0.29  0.60     0.294 HD
ENDROOT
BRANCH  55  57
ATOM     57  CA  GLU A   6      13.229  33.796  73.710  0.04  1.91     0.040 C 
ATOM     58  HA  GLU A   6      12.803  32.924  73.875  0.11  1.39     0.111 H 
BRANCH  57  59
ATOM     59  CB  GLU A   6      12.237  34.900  73.299  0.06  1.91     0.056 C 
ATOM     60  HB3 GLU A   6      11.783  34.603  72.477 -0.02  1.49    -0.017 H 
ATOM     61  HB2 GLU A   6      12.754  35.727  73.155 -0.02  1.49    -0.017 H 
BRANCH  59  62
ATOM     62  CG  GLU A   6      11.152  35.211  74.336  0.01  1.91     0.014 C 
ATOM     63  HG3 GLU A   6      11.028  36.166  74.366 -0.04  1.49    -0.043 H 
ATOM     64  HG2 GLU A   6      11.403  34.794  75.167 -0.04  1.49    -0.043 H 
BRANCH  62  65
ATOM     65  CD  GLU A   6       9.856  34.583  73.865  0.81  1.91     0.805 C 
ATOM     66  OE1 GLU A   6       9.646  34.554  72.623 -0.82  1.66    -0.819 OA
ATOM     67  OE2 GLU A   6       9.055  34.136  74.729 -0.82  1.66    -0.819 OA
ENDBRANCH  62  65
ENDBRANCH  59  62
ENDBRANCH  57  59
BRANCH  57  68
ATOM     68  C   GLU A   6      14.225  33.701  72.637  0.54  1.91     0.537 C 
ATOM     69  N   PHE A   7      15.151  32.755  72.833 -0.38  1.82    -0.382 N 
ATOM     70  H   PHE A   7      14.888  32.021  73.497  0.27  0.60     0.268 HD
ATOM     71  O   GLU A   6      14.121  34.370  71.607 -0.58  1.66    -0.582 OA
BRANCH  69  72
ATOM     72  CA  PHE A   7      16.376  32.846  72.129 -0.18  1.91    -0.182 C 
ATOM     73  HA  PHE A   7      16.925  32.068  72.362  0.11  1.39     0.110 H 
BRANCH  72  74
ATOM     74  CB  PHE A   7      16.327  33.102  70.614 -0.10  1.91    -0.096 C 
ATOM     75  HB2 PHE A   7      16.314  32.269  70.184  0.04  1.49     0.044 H 
ATOM     76  HB3 PHE A   7      15.659  33.741  70.454  0.04  1.49     0.044 H 
BRANCH  74  77
ATOM     77  CG  PHE A   7      17.659  33.730  70.421  0.06  1.91     0.055 A 
ATOM     78  CD2 PHE A   7      17.815  35.027  70.043 -0.13  1.91    -0.130 A 
ATOM     79  HD2 PHE A   7      17.016  35.599  69.850  0.14  1.46     0.141 H 
ATOM     80  CE2 PHE A   7      19.076  35.557  69.924 -0.18  1.91    -0.185 A 
ATOM     81  HE2 PHE A   7      19.187  36.524  69.619  0.15  1.46     0.146 H 
ATOM     82  CZ  PHE A   7      20.177  34.793  70.214 -0.09  1.91    -0.094 A 
ATOM     83  HZ  PHE A   7      21.103  35.205  70.123  0.13  1.46     0.128 H 
ATOM     84  CE1 PHE A   7      20.053  33.507  70.616 -0.18  1.91    -0.185 A 
ATOM     85  HE1 PHE A   7      20.834  32.938  70.834  0.15  1.46     0.146 H 
ATOM     86  CD1 PHE A   7      18.783  33.032  70.707 -0.13  1.91    -0.130 A 
ATOM     87  HD1 PHE A   7      18.672  32.047  71.023  0.14  1.46     0.141 H 
ENDBRANCH  74  77
ENDBRANCH  72  74
BRANCH  72  88
ATOM     88  C   PHE A   7      17.037  34.047  72.798  0.77  1.91     0.766 C 
ATOM     89  OXT PHE A   7      16.511  35.188  72.706 -0.80  1.66    -0.803 OA
ATOM     90  O   PHE A   7      18.114  33.821  73.408 -0.80  1.66    -0.803 OA
ENDBRANCH  72  88
ENDBRANCH  69  72
ENDBRANCH  57  68
ENDBRANCH  55  57
BRANCH   1  91
ATOM     91  CA  SER A   2      16.585  28.107  73.318 -0.02  1.91    -0.025 C 
ATOM     92  HA  SER A   2      16.440  28.434  72.391  0.08  1.39     0.084 H 
BRANCH  91  93
ATOM     93  N   SER A   2      17.090  26.769  73.256 -0.42  1.82    -0.416 N 
ATOM     94  C   LYS A   1      17.600  26.296  72.104  0.72  1.91     0.721 C 
ATOM     95  O   LYS A   1      17.590  26.954  71.065 -0.60  1.66    -0.601 OA
ATOM     96  H   SER A   2      17.104  26.100  74.038  0.27  0.60     0.272 HD
BRANCH  94  97
ATOM     97  CA  LYS A   1      18.175  24.916  72.137 -0.00  1.91    -0.002 C 
ATOM     98  HA  LYS A   1      17.489  24.269  72.469  0.12  1.10     0.118 H 
BRANCH  97  99
ATOM     99  CB  LYS A   1      19.423  24.986  73.037  0.02  1.91     0.021 C 
ATOM    100  HB2 LYS A   1      19.964  25.779  72.755  0.03  1.49     0.028 H 
ATOM    101  HB3 LYS A   1      19.116  25.114  73.981  0.03  1.49     0.028 H 
BRANCH  99 102
ATOM    102  CG  LYS A   1      20.328  23.751  72.992 -0.00  1.91    -0.005 C 
ATOM    103  HG2 LYS A   1      20.643  23.616  72.036  0.01  1.49     0.012 H 
ATOM    104  HG3 LYS A   1      21.153  23.934  73.555  0.01  1.49     0.012 H 
BRANCH 102 105
ATOM    105  CD  LYS A   1      19.689  22.449  73.478 -0.06  1.91    -0.061 C 
ATOM    106  HD2 LYS A   1      18.706  22.484  73.286  0.06  1.49     0.063 H 
ATOM    107  HD3 LYS A   1      20.094  21.684  72.973  0.06  1.49     0.063 H 
BRANCH 105 108
ATOM    108  CE  LYS A   1      19.878  22.190  74.974 -0.02  1.91    -0.018 C 
ATOM    109  HE2 LYS A   1      20.852  22.215  75.181  0.12  1.10     0.117 H 
ATOM    110  HE3 LYS A   1      19.401  22.900  75.483  0.12  1.10     0.117 H 
BRANCH 108 111
ATOM    111  NZ  LYS A   1      19.326  20.864  75.331 -0.38  1.82    -0.376 N 
ATOM    112  HZ3 LYS A   1      18.547  20.980  75.949  0.34  0.60     0.338 HD
ATOM    113  HZ2 LYS A   1      19.024  20.392  74.502  0.34  0.60     0.338 HD
ATOM    114  HZ1 LYS A   1      20.031  20.318  75.785  0.34  0.60     0.338 HD
ENDBRANCH 108 111
ENDBRANCH 105 108
ENDBRANCH 102 105
ENDBRANCH  99 102
ENDBRANCH  97  99
BRANCH  97 115
ATOM    115  N   LYS A   1      18.550  24.519  70.759  0.10  1.82     0.097 N 
ATOM    116  H2  LYS A   1      18.159  25.172  70.112  0.22  0.60     0.216 HD
ATOM    117  H   LYS A   1      18.194  23.604  70.574  0.22  0.60     0.216 HD
ATOM    118  H3  LYS A   1      19.546  24.517  70.678  0.22  0.60     0.216 HD
ENDBRANCH  97 115
ENDBRANCH  94  97
ENDBRANCH  91  93
BRANCH  91 119
ATOM    119  CB  SER A   2      15.368  28.262  74.235  0.21  1.91     0.212 C 
ATOM    120  HB3 SER A   2      14.686  27.593  73.977  0.04  1.39     0.035 H 
ATOM    121  HB2 SER A   2      15.018  29.183  74.149  0.04  1.39     0.035 H 
BRANCH 119 122
ATOM    122  OG  SER A   2      15.756  28.035  75.582 -0.65  1.72    -0.655 OA
ATOM    123  HG  SER A   2      16.527  28.627  75.809  0.43  0.00     0.427 HD
ENDBRANCH 119 122
ENDBRANCH  91 119
ENDBRANCH   1  91
TORSDOF 31
