REMARK  20 active torsions:
REMARK  status: ('A' for Active; 'I' for Inactive)
REMARK    1  A    between atoms: N_1  and  CA_2 
REMARK    2  A    between atoms: CA_2  and  C_3 
REMARK    3  A    between atoms: CA_2  and  CB_5 
REMARK       I    between atoms: C_3  and  N_25 
REMARK    4  A    between atoms: CB_5  and  CG_6 
REMARK    5  A    between atoms: CG_6  and  CD_7 
REMARK    6  A    between atoms: CD_7  and  CE_8 
REMARK    7  A    between atoms: CE_8  and  NZ_9 
REMARK    8  A    between atoms: N_25  and  CA_26 
REMARK    9  A    between atoms: CA_26  and  C_27 
REMARK   10  A    between atoms: CA_26  and  CB_29 
REMARK       I    between atoms: C_27  and  N_36 
REMARK   11  A    between atoms: CB_29  and  OG_30 
REMARK       I    between atoms: CA_37  and  C_38 
REMARK       I    between atoms: C_38  and  N_50 
REMARK       I    between atoms: N_50  and  CA_51 
REMARK       I    between atoms: CA_51  and  CB_54 
REMARK       I    between atoms: CA_51  and  C_52 
REMARK       I    between atoms: C_52  and  N_71 
REMARK       I    between atoms: CB_54  and  CG_55 
REMARK       I    between atoms: CZ_60  and  OH_61 
REMARK       I    between atoms: N_71  and  CA_72 
REMARK       I    between atoms: CA_72  and  C_73 
REMARK       I    between atoms: CA_72  and  CB_75 
REMARK       I    between atoms: C_73  and  N_88 
REMARK       I    between atoms: CB_75  and  CG_76 
REMARK       I    between atoms: CG_76  and  CD_77 
REMARK       I    between atoms: CD_77  and  NE2_86 
REMARK   12  A    between atoms: N_88  and  CA_89 
REMARK   13  A    between atoms: CA_89  and  CB_92 
REMARK   14  A    between atoms: CA_89  and  C_90 
REMARK       I    between atoms: C_90  and  N_103 
REMARK   15  A    between atoms: CB_92  and  CG_93 
REMARK   16  A    between atoms: CG_93  and  CD_94 
REMARK   17  A    between atoms: N_103  and  CA_104 
REMARK   18  A    between atoms: CA_104  and  C_105 
REMARK   19  A    between atoms: CA_104  and  CB_107 
REMARK   20  A    between atoms: CB_107  and  CG_108 
ROOT
ATOM      1  C   SER A   2      13.421  32.430  74.234  0.60  1.91     0.597 C 
ATOM      2  O   SER A   2      12.843  32.460  75.318 -0.57  1.66    -0.568 OA
ATOM      3  N   PRO A   3      14.202  31.451  73.901 -0.25  1.82    -0.255 N 
ATOM      4  CA  PRO A   3      14.418  30.413  74.860 -0.03  1.91    -0.027 C 
ATOM      5  C   PRO A   3      15.170  30.957  76.030  0.59  1.91     0.590 C 
ATOM      6  O   PRO A   3      15.181  30.309  77.076 -0.57  1.66    -0.575 OA
ATOM      7  CD  PRO A   3      14.272  30.958  72.535  0.02  1.91     0.019 C 
ATOM      8  CB  PRO A   3      15.116  29.290  74.097 -0.01  1.91    -0.007 C 
ATOM      9  CG  PRO A   3      14.580  29.455  72.661  0.02  1.91     0.019 C 
ATOM     10  HG2 PRO A   3      15.275  29.182  72.008  0.02  1.49     0.021 H 
ATOM     11  HA  PRO A   3      13.547  29.995  75.151  0.06  1.39     0.064 H 
ATOM     12  HD3 PRO A   3      13.400  31.094  72.050  0.04  1.39     0.039 H 
ATOM     13  HD2 PRO A   3      15.000  31.418  72.015  0.04  1.39     0.039 H 
ATOM     14  HG3 PRO A   3      13.756  28.916  72.545  0.02  1.49     0.021 H 
ATOM     15  HB3 PRO A   3      14.864  28.397  74.449  0.03  1.49     0.025 H 
ATOM     16  HB2 PRO A   3      16.102  29.403  74.102  0.03  1.49     0.025 H 
ATOM     17  N   TYR A   4      15.901  32.073  75.850 -0.42  1.82    -0.416 N 
ATOM     18  CA  TYR A   4      16.610  32.670  76.945 -0.00  1.91    -0.001 C 
ATOM     19  C   TYR A   4      15.704  33.508  77.800  0.60  1.91     0.597 C 
ATOM     20  O   TYR A   4      15.841  33.537  79.024 -0.57  1.66    -0.568 OA
ATOM     21  CB  TYR A   4      17.796  33.550  76.529 -0.02  1.91    -0.015 C 
ATOM     22  CG  TYR A   4      18.626  33.628  77.762 -0.00  1.91    -0.001 A 
ATOM     23  CD1 TYR A   4      19.599  32.678  77.978 -0.19  1.91    -0.191 A 
ATOM     24  CD2 TYR A   4      18.428  34.607  78.707 -0.19  1.91    -0.191 A 
ATOM     25  CE1 TYR A   4      20.377  32.707  79.109 -0.23  1.91    -0.234 A 
ATOM     26  CE2 TYR A   4      19.205  34.641  79.843 -0.23  1.91    -0.234 A 
ATOM     27  CZ  TYR A   4      20.181  33.693  80.044  0.32  1.91     0.323 A 
ATOM     28  OH  TYR A   4      20.980  33.723  81.207 -0.56  1.72    -0.558 OA
ATOM     29  HA  TYR A   4      16.995  31.929  77.522  0.09  1.39     0.088 H 
ATOM     30  HE1 TYR A   4      21.089  32.010  79.252  0.17  1.46     0.166 H 
ATOM     31  HE2 TYR A   4      19.059  35.363  80.531  0.17  1.46     0.166 H 
ATOM     32  H   TYR A   4      15.895  32.434  74.881  0.27  0.60     0.272 HD
ATOM     33  HD2 TYR A   4      17.721  35.296  78.571  0.17  1.46     0.170 H 
ATOM     34  HD1 TYR A   4      19.743  31.951  77.298  0.17  1.46     0.170 H 
ATOM     35  HB3 TYR A   4      17.461  34.422  76.313  0.03  1.49     0.029 H 
ATOM     36  HB2 TYR A   4      18.283  33.092  75.842  0.03  1.49     0.029 H 
ATOM     37  HH  TYR A   4      21.662  34.435  81.096  0.40  0.00     0.399 HD
ATOM     38  N   GLN A   5      14.781  34.261  77.166 -0.42  1.82    -0.416 N 
ATOM     39  CA  GLN A   5      13.951  35.173  77.902 -0.00  1.91    -0.003 C 
ATOM     40  C   GLN A   5      12.559  34.979  77.405  0.60  1.91     0.597 C 
ATOM     41  O   GLN A   5      12.128  35.629  76.455 -0.57  1.66    -0.568 OA
ATOM     42  CB  GLN A   5      14.359  36.624  77.601 -0.00  1.91    -0.004 C 
ATOM     43  CG  GLN A   5      15.858  36.850  77.828 -0.06  1.91    -0.065 C 
ATOM     44  CD  GLN A   5      16.229  38.267  77.416  0.70  1.91     0.695 C 
ATOM     45  HG2 GLN A   5      16.053  36.735  78.787  0.04  1.49     0.035 H 
ATOM     46  HA  GLN A   5      13.981  34.917  78.864  0.09  1.39     0.085 H 
ATOM     47  HG3 GLN A   5      16.362  36.212  77.271  0.04  1.49     0.035 H 
ATOM     48  H   GLN A   5      14.741  34.115  76.145  0.27  0.60     0.272 HD
ATOM     49  HB3 GLN A   5      13.861  37.230  78.207  0.02  1.49     0.017 H 
ATOM     50  HB2 GLN A   5      14.158  36.824  76.653  0.02  1.49     0.017 H 
ATOM     51 2HE2 GLN A   5      14.324  38.597  76.799  0.43  0.60     0.425 HD
ATOM     52  OE1 GLN A   5      17.379  38.680  77.556 -0.61  1.66    -0.609 OA
ATOM     53  NE2 GLN A   5      15.237  39.035  76.890 -0.94  1.82    -0.941 N 
ATOM     54 1HE2 GLN A   5      15.417  39.983  76.611  0.43  0.60     0.425 HD
ATOM     55  N   GLU A   6      11.823  34.076  78.072 -0.52  1.82    -0.516 N 
ATOM     56  H   GLU A   6      12.344  33.661  78.899  0.29  0.60     0.294 HD
ENDROOT
BRANCH   1  57
ATOM     57  CA  SER A   2      13.222  33.519  73.240 -0.02  1.91    -0.025 C 
ATOM     58  HA  SER A   2      12.863  33.123  72.406  0.08  1.39     0.084 H 
BRANCH  57  59
ATOM     59  CB  SER A   2      14.576  34.221  73.051  0.21  1.91     0.212 C 
ATOM     60  HB3 SER A   2      14.439  35.032  72.499  0.04  1.39     0.035 H 
ATOM     61  HB2 SER A   2      15.202  33.593  72.611  0.04  1.39     0.035 H 
BRANCH  59  62
ATOM     62  OG  SER A   2      15.107  34.601  74.313 -0.65  1.72    -0.655 OA
ATOM     63  HG  SER A   2      14.949  35.576  74.459  0.43  0.00     0.427 HD
ENDBRANCH  59  62
ENDBRANCH  57  59
BRANCH  57  64
ATOM     64  N   SER A   2      12.221  34.360  73.815 -0.42  1.82    -0.416 N 
ATOM     65  C   LYS A   1      11.405  35.149  73.098  0.72  1.91     0.721 C 
ATOM     66  O   LYS A   1      11.462  35.240  71.872 -0.60  1.66    -0.601 OA
ATOM     67  H   SER A   2      12.043  34.428  74.855  0.27  0.60     0.272 HD
BRANCH  65  68
ATOM     68  CA  LYS A   1      10.423  35.936  73.895 -0.00  1.91    -0.002 C 
ATOM     69  HA  LYS A   1      10.212  35.450  74.756  0.12  1.10     0.118 H 
BRANCH  68  70
ATOM     70  N   LYS A   1      10.960  37.266  74.247  0.10  1.82     0.097 N 
ATOM     71  H   LYS A   1      10.691  37.926  73.546  0.22  0.60     0.216 HD
ATOM     72  H3  LYS A   1      11.957  37.216  74.298  0.22  0.60     0.216 HD
ATOM     73  H2  LYS A   1      10.591  37.547  75.133  0.22  0.60     0.216 HD
ENDBRANCH  68  70
BRANCH  68  74
ATOM     74  CB  LYS A   1       9.116  36.049  73.091  0.02  1.91     0.021 C 
ATOM     75  HB3 LYS A   1       8.852  35.137  72.800  0.03  1.49     0.028 H 
ATOM     76  HB2 LYS A   1       9.285  36.631  72.305  0.03  1.49     0.028 H 
BRANCH  74  77
ATOM     77  CG  LYS A   1       7.964  36.651  73.896 -0.00  1.91    -0.005 C 
ATOM     78  HG3 LYS A   1       8.217  37.587  74.175  0.01  1.49     0.012 H 
ATOM     79  HG2 LYS A   1       7.832  36.102  74.733  0.01  1.49     0.012 H 
BRANCH  77  80
ATOM     80  CD  LYS A   1       6.639  36.709  73.138 -0.06  1.91    -0.061 C 
ATOM     81  HD3 LYS A   1       6.515  35.853  72.640  0.06  1.49     0.063 H 
ATOM     82  HD2 LYS A   1       6.671  37.472  72.495  0.06  1.49     0.063 H 
BRANCH  80  83
ATOM     83  CE  LYS A   1       5.438  36.907  74.063 -0.02  1.91    -0.018 C 
ATOM     84  HE3 LYS A   1       5.682  37.568  74.766  0.12  1.10     0.117 H 
ATOM     85  HE2 LYS A   1       5.208  36.032  74.478  0.12  1.10     0.117 H 
BRANCH  83  86
ATOM     86  NZ  LYS A   1       4.287  37.409  73.284 -0.38  1.82    -0.376 N 
ATOM     87  HZ1 LYS A   1       4.581  37.629  72.352  0.34  0.60     0.338 HD
ATOM     88  HZ3 LYS A   1       3.573  36.708  73.248  0.34  0.60     0.338 HD
ATOM     89  HZ2 LYS A   1       3.920  38.233  73.719  0.34  0.60     0.338 HD
ENDBRANCH  83  86
ENDBRANCH  80  83
ENDBRANCH  77  80
ENDBRANCH  74  77
ENDBRANCH  68  74
ENDBRANCH  65  68
ENDBRANCH  57  64
ENDBRANCH   1  57
BRANCH  55  90
ATOM     90  CA  GLU A   6      10.489  33.705  77.722  0.04  1.91     0.040 C 
ATOM     91  HA  GLU A   6       9.871  34.451  77.869  0.11  1.39     0.111 H 
BRANCH  90  92
ATOM     92  CB  GLU A   6      10.371  33.105  76.314  0.06  1.91     0.056 C 
ATOM     93  HB2 GLU A   6      10.717  33.767  75.678 -0.02  1.49    -0.017 H 
ATOM     94  HB3 GLU A   6      10.880  32.267  76.302 -0.02  1.49    -0.017 H 
BRANCH  92  95
ATOM     95  CG  GLU A   6       8.936  32.780  75.909  0.01  1.91     0.014 C 
ATOM     96  HG3 GLU A   6       8.463  32.468  76.686 -0.04  1.49    -0.043 H 
ATOM     97  HG2 GLU A   6       8.961  32.180  75.158 -0.04  1.49    -0.043 H 
BRANCH  95  98
ATOM     98  CD  GLU A   6       8.287  34.073  75.454  0.81  1.91     0.805 C 
ATOM     99  OE2 GLU A   6       7.537  34.015  74.447 -0.82  1.66    -0.819 OA
ATOM    100  OE1 GLU A   6       8.526  35.128  76.100 -0.82  1.66    -0.819 OA
ENDBRANCH  95  98
ENDBRANCH  92  95
ENDBRANCH  90  92
BRANCH  90 101
ATOM    101  C   GLU A   6      10.203  32.599  78.684  0.54  1.91     0.537 C 
ATOM    102  N   PHE A   7      10.382  31.339  78.238 -0.38  1.82    -0.382 N 
ATOM    103  H   PHE A   7      10.690  31.279  77.251  0.27  0.60     0.268 HD
ATOM    104  O   GLU A   6       9.835  32.839  79.830 -0.58  1.66    -0.582 OA
BRANCH 102 105
ATOM    105  CA  PHE A   7      10.152  30.210  79.096 -0.18  1.91    -0.182 C 
ATOM    106  HA  PHE A   7      10.342  29.382  78.563  0.11  1.39     0.110 H 
BRANCH 105 107
ATOM    107  C   PHE A   7       8.683  30.160  79.468  0.77  1.91     0.766 C 
ATOM    108  OXT PHE A   7       7.933  29.367  78.838 -0.80  1.66    -0.803 OA
ATOM    109  O   PHE A   7       8.295  30.903  80.409 -0.80  1.66    -0.803 OA
ENDBRANCH 105 107
BRANCH 105 110
ATOM    110  CB  PHE A   7      10.920  30.234  80.435 -0.10  1.91    -0.096 C 
ATOM    111  HB2 PHE A   7      10.902  31.159  80.768  0.04  1.49     0.044 H 
ATOM    112  HB3 PHE A   7      10.468  29.609  81.044  0.04  1.49     0.044 H 
BRANCH 110 113
ATOM    113  CG  PHE A   7      12.345  29.809  80.287  0.06  1.91     0.055 A 
ATOM    114  CD2 PHE A   7      12.711  28.517  80.598 -0.13  1.91    -0.130 A 
ATOM    115  HD2 PHE A   7      12.009  27.868  80.917  0.14  1.46     0.141 H 
ATOM    116  CE2 PHE A   7      14.016  28.099  80.482 -0.18  1.91    -0.185 A 
ATOM    117  CZ  PHE A   7      14.982  28.983  80.067 -0.09  1.91    -0.094 A 
ATOM    118  HE2 PHE A   7      14.258  27.137  80.703  0.15  1.46     0.146 H 
ATOM    119  CE1 PHE A   7      14.629  30.276  79.762 -0.18  1.91    -0.185 A 
ATOM    120  HZ  PHE A   7      15.937  28.692  79.987  0.13  1.46     0.128 H 
ATOM    121  CD1 PHE A   7      13.321  30.688  79.879 -0.13  1.91    -0.130 A 
ATOM    122  HE1 PHE A   7      15.332  30.936  79.447  0.15  1.46     0.146 H 
ATOM    123  HD1 PHE A   7      13.084  31.635  79.666  0.14  1.46     0.141 H 
ENDBRANCH 110 113
ENDBRANCH 105 110
ENDBRANCH 102 105
ENDBRANCH  90 101
ENDBRANCH  55  90
TORSDOF 31
