MODEL 1
REMARK VINA RESULT:      -7.0      0.000      0.000
REMARK  11 active torsions:
REMARK  status: ('A' for Active; 'I' for Inactive)
REMARK    1  A    between atoms: CA_2  and  C_3 
REMARK       I    between atoms: C_3  and  N_17 
REMARK    2  A    between atoms: N_17  and  CA_18 
REMARK    3  A    between atoms: CA_18  and  CB_21 
REMARK    4  A    between atoms: CA_18  and  C_19 
REMARK       I    between atoms: C_19  and  N_38 
REMARK    5  A    between atoms: CB_21  and  CG_22 
REMARK    6  A    between atoms: CZ_25  and  OH_26 
REMARK    7  A    between atoms: N_38  and  CA_39 
REMARK    8  A    between atoms: CA_39  and  CB_42 
REMARK    9  A    between atoms: CA_39  and  C_40 
REMARK   10  A    between atoms: CB_42  and  CG_43 
REMARK   11  A    between atoms: CG_43  and  CD_44 
REMARK       I    between atoms: CD_44  and  NE2_54 
ROOT
ATOM      1  CA  TYR A   2      19.019  34.168  75.916 -0.00  1.91    -0.001 C 
ATOM      2  HA  TYR A   2      19.565  34.226  75.071  0.09  1.39     0.088 H 
ENDROOT
BRANCH   1   3
ATOM      3  N   TYR A   2      19.924  34.330  77.047 -0.42  1.82    -0.416 N 
ATOM      4  H   TYR A   2      19.645  34.566  78.012  0.27  0.60     0.272 HD
ATOM      5  C   PRO A   1      21.339  34.171  76.929  0.53  1.91     0.526 C 
ATOM      6  O   PRO A   1      21.856  33.849  75.824 -0.50  1.66    -0.500 OA
BRANCH   5   7
ATOM      7  CA  PRO A   1      22.201  34.406  78.124  0.10  1.91     0.100 C 
ATOM      8  HA  PRO A   1      22.330  33.560  78.660  0.10  1.10     0.100 H 
ATOM      9  CB  PRO A   1      21.540  35.373  79.079 -0.12  1.91    -0.115 C 
ATOM     10  CG  PRO A   1      22.689  36.142  79.663 -0.12  1.91    -0.121 C 
ATOM     11  HB2 PRO A   1      20.913  35.989  78.597  0.10  1.49     0.100 H 
ATOM     12  HB3 PRO A   1      21.039  34.889  79.798  0.10  1.49     0.100 H 
ATOM     13  HG3 PRO A   1      23.022  35.698  80.492  0.10  1.49     0.100 H 
ATOM     14  CD  PRO A   1      23.740  36.117  78.578 -0.01  1.91    -0.012 C 
ATOM     15  HG2 PRO A   1      22.413  37.080  79.870  0.10  1.49     0.100 H 
ATOM     16  HD2 PRO A   1      23.712  36.977  78.029  0.10  1.10     0.100 H 
ATOM     17  HD3 PRO A   1      24.677  36.070  78.984  0.10  1.10     0.100 H 
ATOM     18  N   PRO A   1      23.493  34.958  77.726 -0.20  1.82    -0.202 N 
ATOM     19  H2  PRO A   1      24.164  34.251  77.663  0.31  0.60     0.312 HD
ATOM     20  H   PRO A   1      23.391  35.460  76.882  0.31  0.60     0.312 HD
ENDBRANCH   5   7
ENDBRANCH   1   3
BRANCH   1  21
ATOM     21  CB  TYR A   2      18.329  32.813  75.985 -0.02  1.91    -0.015 C 
ATOM     22  HB2 TYR A   2      18.753  32.284  76.703  0.03  1.49     0.029 H 
ATOM     23  HB3 TYR A   2      17.369  32.962  76.163  0.03  1.49     0.029 H 
BRANCH  21  24
ATOM     24  CG  TYR A   2      18.470  32.079  74.694 -0.00  1.91    -0.001 A 
ATOM     25  CD2 TYR A   2      17.349  31.496  74.093 -0.19  1.91    -0.191 A 
ATOM     26  CE2 TYR A   2      17.485  30.792  72.892 -0.23  1.91    -0.234 A 
ATOM     27  HD2 TYR A   2      16.460  31.580  74.516  0.17  1.46     0.170 H 
ATOM     28  HE2 TYR A   2      16.685  30.378  72.461  0.17  1.46     0.166 H 
ATOM     29  CZ  TYR A   2      18.743  30.667  72.294  0.32  1.91     0.323 A 
ATOM     30  CE1 TYR A   2      19.866  31.243  72.897 -0.23  1.91    -0.234 A 
ATOM     31  CD1 TYR A   2      19.730  31.947  74.097 -0.19  1.91    -0.191 A 
ATOM     32  HE1 TYR A   2      20.765  31.150  72.470  0.17  1.46     0.166 H 
ATOM     33  HD1 TYR A   2      20.527  32.354  74.523  0.17  1.46     0.170 H 
BRANCH  29  34
ATOM     34  OH  TYR A   2      18.879  29.967  71.102 -0.56  1.72    -0.558 OA
ATOM     35  HH  TYR A   2      19.848  29.853  70.905  0.40  0.00     0.399 HD
ENDBRANCH  29  34
ENDBRANCH  21  24
ENDBRANCH   1  21
BRANCH   1  36
ATOM     36  C   TYR A   2      17.998  35.259  75.908  0.60  1.91     0.597 C 
ATOM     37  N   GLN A   3      16.652  34.957  76.278 -0.38  1.82    -0.382 N 
ATOM     38  H   GLN A   3      16.533  33.957  76.505  0.27  0.60     0.268 HD
ATOM     39  O   TYR A   2      18.324  36.432  75.578 -0.57  1.66    -0.568 OA
BRANCH  37  40
ATOM     40  CA  GLN A   3      15.602  35.967  76.319 -0.22  1.91    -0.225 C 
ATOM     41  HA  GLN A   3      16.010  36.842  76.035  0.12  1.39     0.123 H 
BRANCH  40  42
ATOM     42  CB  GLN A   3      14.484  35.570  75.363 -0.07  1.91    -0.066 C 
ATOM     43  HB3 GLN A   3      14.255  36.347  74.790  0.05  1.49     0.045 H 
ATOM     44  HB2 GLN A   3      13.697  35.275  75.889  0.05  1.49     0.045 H 
BRANCH  42  45
ATOM     45  CG  GLN A   3      14.907  34.420  74.457 -0.02  1.91    -0.021 C 
ATOM     46  HG3 GLN A   3      14.182  33.735  74.461  0.02  1.49     0.020 H 
ATOM     47  HG2 GLN A   3      15.748  34.028  74.822  0.02  1.49     0.020 H 
BRANCH  45  48
ATOM     48  CD  GLN A   3      15.142  34.884  73.060  0.71  1.91     0.709 C 
ATOM     49  OE1 GLN A   3      16.089  34.403  72.383 -0.61  1.66    -0.610 OA
ATOM     50  NE2 GLN A   3      14.296  35.874  72.489 -0.96  1.82    -0.957 N 
ATOM     51 2HE2 GLN A   3      13.565  36.164  73.140  0.43  0.60     0.430 HD
ATOM     52 1HE2 GLN A   3      14.444  36.192  71.589  0.43  0.60     0.430 HD
ENDBRANCH  45  48
ENDBRANCH  42  45
ENDBRANCH  40  42
BRANCH  40  53
ATOM     53  C   GLN A   3      15.085  36.116  77.715  0.78  1.91     0.777 C 
ATOM     54  O   GLN A   3      15.883  36.212  78.686 -0.80  1.66    -0.804 OA
ATOM     55  OXT GLN A   3      13.717  36.167  77.940 -0.80  1.66    -0.804 OA
ENDBRANCH  40  53
ENDBRANCH  37  40
ENDBRANCH   1  36
TORSDOF 11
ENDMDL
