MODEL 3
REMARK VINA RESULT:      -6.7      1.668      2.664
REMARK  11 active torsions:
REMARK  status: ('A' for Active; 'I' for Inactive)
REMARK    1  A    between atoms: CA_2  and  C_3 
REMARK       I    between atoms: C_3  and  N_17 
REMARK    2  A    between atoms: N_17  and  CA_18 
REMARK    3  A    between atoms: CA_18  and  CB_21 
REMARK    4  A    between atoms: CA_18  and  C_19 
REMARK       I    between atoms: C_19  and  N_38 
REMARK    5  A    between atoms: CB_21  and  CG_22 
REMARK    6  A    between atoms: CZ_25  and  OH_26 
REMARK    7  A    between atoms: N_38  and  CA_39 
REMARK    8  A    between atoms: CA_39  and  CB_42 
REMARK    9  A    between atoms: CA_39  and  C_40 
REMARK   10  A    between atoms: CB_42  and  CG_43 
REMARK   11  A    between atoms: CG_43  and  CD_44 
REMARK       I    between atoms: CD_44  and  NE2_54 
ROOT
ATOM      1  CA  TYR A   2      19.767  34.088  76.058 -0.00  1.91    -0.001 C 
ATOM      2  HA  TYR A   2      20.314  34.087  75.211  0.09  1.39     0.088 H 
ENDROOT
BRANCH   1   3
ATOM      3  N   TYR A   2      20.680  34.247  77.182 -0.42  1.82    -0.416 N 
ATOM      4  H   TYR A   2      20.437  34.646  78.102  0.27  0.60     0.272 HD
ATOM      5  C   PRO A   1      22.052  33.851  77.122  0.53  1.91     0.526 C 
ATOM      6  O   PRO A   1      22.516  33.313  76.080 -0.50  1.66    -0.500 OA
BRANCH   5   7
ATOM      7  CA  PRO A   1      22.934  34.097  78.300  0.10  1.91     0.100 C 
ATOM      8  HA  PRO A   1      22.458  33.897  79.168  0.10  1.10     0.100 H 
ATOM      9  CB  PRO A   1      23.308  35.558  78.392 -0.12  1.91    -0.115 C 
ATOM     10  CG  PRO A   1      24.707  35.538  78.936 -0.12  1.91    -0.121 C 
ATOM     11  HB2 PRO A   1      23.288  35.997  77.492  0.10  1.49     0.100 H 
ATOM     12  HB3 PRO A   1      22.697  36.052  79.013  0.10  1.49     0.100 H 
ATOM     13  HG3 PRO A   1      24.696  35.575  79.933  0.10  1.49     0.100 H 
ATOM     14  CD  PRO A   1      25.271  34.222  78.452 -0.01  1.91    -0.012 C 
ATOM     15  HG2 PRO A   1      25.234  36.305  78.576  0.10  1.49     0.100 H 
ATOM     16  HD2 PRO A   1      25.824  34.357  77.604  0.10  1.10     0.100 H 
ATOM     17  HD3 PRO A   1      25.909  33.825  79.145  0.10  1.10     0.100 H 
ATOM     18  N   PRO A   1      24.160  33.311  78.198 -0.20  1.82    -0.202 N 
ATOM     19  H2  PRO A   1      24.083  32.485  78.715  0.31  0.60     0.312 HD
ATOM     20  H   PRO A   1      24.366  33.145  77.247  0.31  0.60     0.312 HD
ENDBRANCH   5   7
ENDBRANCH   1   3
BRANCH   1  21
ATOM     21  CB  TYR A   2      19.011  32.772  76.176 -0.02  1.91    -0.015 C 
ATOM     22  HB2 TYR A   2      19.477  32.204  76.837  0.03  1.49     0.029 H 
ATOM     23  HB3 TYR A   2      18.085  32.969  76.458  0.03  1.49     0.029 H 
BRANCH  21  24
ATOM     24  CG  TYR A   2      18.974  32.060  74.866 -0.00  1.91    -0.001 A 
ATOM     25  CD2 TYR A   2      17.827  31.358  74.481 -0.19  1.91    -0.191 A 
ATOM     26  CE2 TYR A   2      17.799  30.674  73.261 -0.23  1.91    -0.234 A 
ATOM     27  HD2 TYR A   2      17.035  31.342  75.072  0.17  1.46     0.170 H 
ATOM     28  HE2 TYR A   2      16.980  30.176  72.984  0.17  1.46     0.166 H 
ATOM     29  CZ  TYR A   2      18.922  30.690  72.427  0.32  1.91     0.323 A 
ATOM     30  CE1 TYR A   2      20.072  31.386  72.813 -0.23  1.91    -0.234 A 
ATOM     31  CD1 TYR A   2      20.099  32.069  74.032 -0.19  1.91    -0.191 A 
ATOM     32  HE1 TYR A   2      20.875  31.393  72.216  0.17  1.46     0.166 H 
ATOM     33  HD1 TYR A   2      20.916  32.560  74.304  0.17  1.46     0.170 H 
BRANCH  29  34
ATOM     34  OH  TYR A   2      18.895  30.012  71.216 -0.56  1.72    -0.558 OA
ATOM     35  HH  TYR A   2      18.742  29.044  71.392  0.40  0.00     0.399 HD
ENDBRANCH  29  34
ENDBRANCH  21  24
ENDBRANCH   1  21
BRANCH   1  36
ATOM     36  C   TYR A   2      18.801  35.226  76.008  0.60  1.91     0.597 C 
ATOM     37  N   GLN A   3      18.755  36.150  77.097 -0.38  1.82    -0.382 N 
ATOM     38  H   GLN A   3      19.424  35.896  77.842  0.27  0.60     0.268 HD
ATOM     39  O   TYR A   2      18.036  35.368  75.015 -0.57  1.66    -0.568 OA
BRANCH  37  40
ATOM     40  CA  GLN A   3      17.859  37.299  77.115 -0.22  1.91    -0.225 C 
ATOM     41  HA  GLN A   3      17.426  37.363  76.210  0.12  1.39     0.123 H 
BRANCH  40  42
ATOM     42  CB  GLN A   3      16.803  37.097  78.194 -0.07  1.91    -0.066 C 
ATOM     43  HB3 GLN A   3      16.164  37.856  78.170  0.05  1.49     0.045 H 
ATOM     44  HB2 GLN A   3      17.249  37.038  79.078  0.05  1.49     0.045 H 
BRANCH  42  45
ATOM     45  CG  GLN A   3      16.019  35.810  77.972 -0.02  1.91    -0.021 C 
ATOM     46  HG3 GLN A   3      15.670  35.499  78.853  0.02  1.49     0.020 H 
ATOM     47  HG2 GLN A   3      16.638  35.127  77.592  0.02  1.49     0.020 H 
BRANCH  45  48
ATOM     48  CD  GLN A   3      14.879  36.019  77.034  0.71  1.91     0.709 C 
ATOM     49  OE1 GLN A   3      13.710  36.168  77.480 -0.61  1.66    -0.610 OA
ATOM     50  NE2 GLN A   3      15.111  36.051  75.631 -0.96  1.82    -0.957 N 
ATOM     51 2HE2 GLN A   3      16.102  35.932  75.412  0.43  0.60     0.430 HD
ATOM     52 1HE2 GLN A   3      14.381  36.174  75.012  0.43  0.60     0.430 HD
ENDBRANCH  45  48
ENDBRANCH  42  45
ENDBRANCH  40  42
BRANCH  40  53
ATOM     53  C   GLN A   3      18.639  38.554  77.358  0.78  1.91     0.777 C 
ATOM     54  O   GLN A   3      19.860  38.500  77.664 -0.80  1.66    -0.804 OA
ATOM     55  OXT GLN A   3      18.016  39.786  77.226 -0.80  1.66    -0.804 OA
ENDBRANCH  40  53
ENDBRANCH  37  40
ENDBRANCH   1  36
TORSDOF 11
ENDMDL
