REMARK  11 active torsions:
REMARK  status: ('A' for Active; 'I' for Inactive)
REMARK    1  A    between atoms: CA_2  and  C_3 
REMARK       I    between atoms: C_3  and  N_17 
REMARK    2  A    between atoms: N_17  and  CA_18 
REMARK    3  A    between atoms: CA_18  and  CB_21 
REMARK    4  A    between atoms: CA_18  and  C_19 
REMARK       I    between atoms: C_19  and  N_38 
REMARK    5  A    between atoms: CB_21  and  CG_22 
REMARK    6  A    between atoms: CZ_25  and  OH_26 
REMARK    7  A    between atoms: N_38  and  CA_39 
REMARK    8  A    between atoms: CA_39  and  CB_42 
REMARK    9  A    between atoms: CA_39  and  C_40 
REMARK   10  A    between atoms: CB_42  and  CG_43 
REMARK   11  A    between atoms: CG_43  and  CD_44 
REMARK       I    between atoms: CD_44  and  NE2_54 
ROOT
ATOM      1  CA  TYR A   2      -0.808  -0.223  -0.365 -0.00  1.91    -0.001 C 
ATOM      2  HA  TYR A   2      -0.761  -0.856   0.418  0.09  1.39     0.088 H 
ENDROOT
BRANCH   1   3
ATOM      3  N   TYR A   2      -1.542   0.962   0.060 -0.42  1.82    -0.416 N 
ATOM      4  H   TYR A   2      -2.276   1.442  -0.484  0.27  0.60     0.272 HD
ATOM      5  C   PRO A   1      -1.311   1.601   1.317  0.53  1.91     0.526 C 
ATOM      6  O   PRO A   1      -0.467   1.130   2.128 -0.50  1.66    -0.500 OA
BRANCH   5   7
ATOM      7  CA  PRO A   1      -2.068   2.842   1.654  0.10  1.91     0.100 C 
ATOM      8  HA  PRO A   1      -2.745   3.069   0.940  0.10  1.10     0.100 H 
ATOM      9  CB  PRO A   1      -1.143   4.036   1.704 -0.12  1.91    -0.115 C 
ATOM     10  CG  PRO A   1      -1.722   4.894   2.791 -0.12  1.91    -0.121 C 
ATOM     11  HB2 PRO A   1      -0.207   3.762   1.934  0.10  1.49     0.100 H 
ATOM     12  HB3 PRO A   1      -1.137   4.529   0.833  0.10  1.49     0.100 H 
ATOM     13  HG3 PRO A   1      -2.382   5.540   2.413  0.10  1.49     0.100 H 
ATOM     14  CD  PRO A   1      -2.400   3.910   3.716 -0.01  1.91    -0.012 C 
ATOM     15  HG2 PRO A   1      -0.999   5.391   3.268  0.10  1.49     0.100 H 
ATOM     16  HD2 PRO A   1      -1.794   3.680   4.505  0.10  1.10     0.100 H 
ATOM     17  HD3 PRO A   1      -3.247   4.317   4.119  0.10  1.10     0.100 H 
ATOM     18  N   PRO A   1      -2.723   2.709   2.952 -0.20  1.82    -0.202 N 
ATOM     19  H2  PRO A   1      -3.656   2.442   2.841  0.31  0.60     0.312 HD
ATOM     20  H   PRO A   1      -2.213   2.078   3.515  0.31  0.60     0.312 HD
ENDBRANCH   5   7
ENDBRANCH   1   3
BRANCH   1  21
ATOM     21  CB  TYR A   2      -1.527  -0.899  -1.524 -0.02  1.91    -0.015 C 
ATOM     22  HB2 TYR A   2      -1.774  -0.206  -2.183  0.03  1.49     0.029 H 
ATOM     23  HB3 TYR A   2      -0.920  -1.572  -1.916  0.03  1.49     0.029 H 
BRANCH  21  24
ATOM     24  CG  TYR A   2      -2.766  -1.584  -1.054 -0.00  1.91    -0.001 A 
ATOM     25  CD2 TYR A   2      -4.001  -0.932  -1.134 -0.19  1.91    -0.191 A 
ATOM     26  CE2 TYR A   2      -5.160  -1.567  -0.676 -0.23  1.91    -0.234 A 
ATOM     27  HD2 TYR A   2      -4.056  -0.021  -1.513  0.17  1.46     0.170 H 
ATOM     28  HE2 TYR A   2      -6.042  -1.104  -0.736  0.17  1.46     0.166 H 
ATOM     29  CZ  TYR A   2      -5.083  -2.854  -0.134  0.32  1.91     0.323 A 
ATOM     30  CE1 TYR A   2      -3.848  -3.505  -0.047 -0.23  1.91    -0.234 A 
ATOM     31  CD1 TYR A   2      -2.690  -2.870  -0.505 -0.19  1.91    -0.191 A 
ATOM     32  HE1 TYR A   2      -3.795  -4.424   0.344  0.17  1.46     0.166 H 
ATOM     33  HD1 TYR A   2      -1.816  -3.333  -0.441  0.17  1.46     0.170 H 
BRANCH  29  34
ATOM     34  OH  TYR A   2      -6.233  -3.485   0.321 -0.56  1.72    -0.558 OA
ATOM     35  HH  TYR A   2      -7.016  -3.127  -0.180  0.40  0.00     0.399 HD
ENDBRANCH  29  34
ENDBRANCH  21  24
ENDBRANCH   1  21
BRANCH   1  36
ATOM     36  C   TYR A   2       0.581   0.145  -0.773  0.60  1.91     0.597 C 
ATOM     37  N   GLN A   3       1.688  -0.491  -0.132 -0.38  1.82    -0.382 N 
ATOM     38  H   GLN A   3       1.378  -1.158   0.593  0.27  0.60     0.268 HD
ATOM     39  O   TYR A   2       0.772   1.008  -1.673 -0.57  1.66    -0.568 OA
BRANCH  37  40
ATOM     40  CA  GLN A   3       3.072  -0.206  -0.487 -0.22  1.91    -0.225 C 
ATOM     41  HA  GLN A   3       3.165   0.792  -0.576  0.12  1.39     0.123 H 
BRANCH  40  42
ATOM     42  CB  GLN A   3       3.991  -0.727   0.611 -0.07  1.91    -0.066 C 
ATOM     43  HB3 GLN A   3       4.247  -1.663   0.403  0.05  1.49     0.045 H 
ATOM     44  HB2 GLN A   3       3.519  -0.675   1.481  0.05  1.49     0.045 H 
BRANCH  42  45
ATOM     45  CG  GLN A   3       5.265   0.102   0.712 -0.02  1.91    -0.021 C 
ATOM     46  HG3 GLN A   3       5.667  -0.049   1.612  0.02  1.49     0.020 H 
ATOM     47  HG2 GLN A   3       5.022   1.063   0.605  0.02  1.49     0.020 H 
BRANCH  45  48
ATOM     48  CD  GLN A   3       6.250  -0.279  -0.341  0.71  1.91     0.709 C 
ATOM     49  OE1 GLN A   3       6.815  -1.404  -0.303 -0.61  1.66    -0.610 OA
ATOM     50  NE2 GLN A   3       6.553   0.631  -1.391 -0.96  1.82    -0.957 N 
ATOM     51 2HE2 GLN A   3       6.015   1.495  -1.306  0.43  0.60     0.430 HD
ATOM     52 1HE2 GLN A   3       7.198   0.402  -2.073  0.43  0.60     0.430 HD
ENDBRANCH  45  48
ENDBRANCH  42  45
ENDBRANCH  40  42
BRANCH  40  53
ATOM     53  C   GLN A   3       3.404  -0.833  -1.805  0.78  1.91     0.777 C 
ATOM     54  O   GLN A   3       3.370  -2.085  -1.945 -0.80  1.66    -0.804 OA
ATOM     55  OXT GLN A   3       3.732  -0.028  -2.886 -0.80  1.66    -0.804 OA
ENDBRANCH  40  53
ENDBRANCH  37  40
ENDBRANCH   1  36
TORSDOF 11
