MODEL 4
REMARK VINA RESULT:      -6.9      2.601      4.327
REMARK  15 active torsions:
REMARK  status: ('A' for Active; 'I' for Inactive)
REMARK    1  A    between atoms: N_1  and  CA_2 
REMARK    2  A    between atoms: CA_2  and  C_3 
REMARK    3  A    between atoms: CA_2  and  CB_5 
REMARK       I    between atoms: C_3  and  N_14 
REMARK    4  A    between atoms: CB_5  and  OG_6 
REMARK    5  A    between atoms: CA_15  and  C_16 
REMARK       I    between atoms: C_16  and  N_28 
REMARK       I    between atoms: N_28  and  CA_29 
REMARK       I    between atoms: CA_29  and  CB_32 
REMARK       I    between atoms: CA_29  and  C_30 
REMARK       I    between atoms: C_30  and  N_49 
REMARK       I    between atoms: CB_32  and  CG_33 
REMARK       I    between atoms: CZ_38  and  OH_39 
REMARK    6  A    between atoms: N_49  and  CA_50 
REMARK    7  A    between atoms: CA_50  and  CB_53 
REMARK    8  A    between atoms: CA_50  and  C_51 
REMARK       I    between atoms: C_51  and  N_66 
REMARK    9  A    between atoms: CB_53  and  CG_54 
REMARK   10  A    between atoms: CG_54  and  CD_55 
REMARK       I    between atoms: CD_55  and  NE2_64 
REMARK   11  A    between atoms: N_66  and  CA_67 
REMARK   12  A    between atoms: CA_67  and  CB_70 
REMARK   13  A    between atoms: CA_67  and  C_68 
REMARK   14  A    between atoms: CB_70  and  CG_71 
REMARK   15  A    between atoms: CG_71  and  CD_72 
ROOT
ATOM      1  C   PRO A   2      20.792  31.791  76.214  0.59  1.91     0.590 C 
ATOM      2  O   PRO A   2      21.121  31.012  77.101 -0.57  1.66    -0.575 OA
ATOM      3  N   TYR A   3      20.520  33.092  76.474 -0.42  1.82    -0.416 N 
ATOM      4  CA  TYR A   3      20.180  33.454  77.833 -0.00  1.91    -0.001 C 
ATOM      5  C   TYR A   3      18.733  33.388  78.232  0.60  1.91     0.597 C 
ATOM      6  O   TYR A   3      18.220  32.395  78.745 -0.57  1.66    -0.568 OA
ATOM      7  CB  TYR A   3      20.534  34.915  78.165 -0.02  1.91    -0.015 C 
ATOM      8  CG  TYR A   3      21.929  35.085  78.649 -0.00  1.91    -0.001 A 
ATOM      9  CD1 TYR A   3      23.026  34.814  77.866 -0.19  1.91    -0.191 A 
ATOM     10  CD2 TYR A   3      22.115  35.578  79.920 -0.19  1.91    -0.191 A 
ATOM     11  CE1 TYR A   3      24.292  35.011  78.369 -0.23  1.91    -0.234 A 
ATOM     12  CE2 TYR A   3      23.374  35.778  80.424 -0.23  1.91    -0.234 A 
ATOM     13  CZ  TYR A   3      24.468  35.491  79.647  0.32  1.91     0.323 A 
ATOM     14  OH  TYR A   3      25.765  35.697  80.164 -0.56  1.72    -0.558 OA
ATOM     15  HA  TYR A   3      20.714  32.828  78.467  0.09  1.39     0.088 H 
ATOM     16  HE1 TYR A   3      25.098  34.802  77.797  0.17  1.46     0.166 H 
ATOM     17  HE2 TYR A   3      23.497  36.132  81.356  0.17  1.46     0.166 H 
ATOM     18  H   TYR A   3      20.578  33.720  75.684  0.27  0.60     0.272 HD
ATOM     19  HD2 TYR A   3      21.316  35.795  80.487  0.17  1.46     0.170 H 
ATOM     20  HD1 TYR A   3      22.909  34.474  76.935  0.17  1.46     0.170 H 
ATOM     21  HB3 TYR A   3      19.904  35.224  78.871  0.03  1.49     0.029 H 
ATOM     22  HB2 TYR A   3      20.409  35.451  77.335  0.03  1.49     0.029 H 
ATOM     23  HH  TYR A   3      26.399  35.739  79.401  0.40  0.00     0.399 HD
ATOM     24  N   GLN A   4      18.024  34.457  77.806 -0.42  1.82    -0.416 N 
ATOM     25  H   GLN A   4      18.596  35.040  77.098  0.27  0.60     0.272 HD
ENDROOT
BRANCH  24  26
ATOM     26  CA  GLN A   4      16.691  34.837  78.192 -0.00  1.91    -0.003 C 
ATOM     27  HA  GLN A   4      16.483  34.411  79.048  0.09  1.39     0.085 H 
BRANCH  26  28
ATOM     28  CB  GLN A   4      16.402  36.331  77.948 -0.00  1.91    -0.004 C 
ATOM     29  HB2 GLN A   4      16.098  36.444  76.994  0.02  1.49     0.017 H 
ATOM     30  HB3 GLN A   4      15.645  36.612  78.554  0.02  1.49     0.017 H 
BRANCH  28  31
ATOM     31  CG  GLN A   4      17.572  37.290  78.185 -0.06  1.91    -0.065 C 
ATOM     32  HG3 GLN A   4      18.286  36.805  78.653  0.04  1.49     0.035 H 
ATOM     33  HG2 GLN A   4      17.246  38.064  78.693  0.04  1.49     0.035 H 
BRANCH  31  34
ATOM     34  CD  GLN A   4      18.084  37.758  76.841  0.70  1.91     0.695 C 
ATOM     35  NE2 GLN A   4      18.313  39.091  76.705 -0.94  1.82    -0.941 N 
ATOM     36 2HE2 GLN A   4      18.110  39.675  77.510  0.43  0.60     0.425 HD
ATOM     37 1HE2 GLN A   4      18.667  39.463  75.839  0.43  0.60     0.425 HD
ATOM     38  OE1 GLN A   4      18.286  36.954  75.936 -0.61  1.66    -0.609 OA
ENDBRANCH  31  34
ENDBRANCH  28  31
ENDBRANCH  26  28
BRANCH  26  39
ATOM     39  C   GLN A   4      15.885  34.181  77.127  0.60  1.91     0.597 C 
ATOM     40  O   GLN A   4      15.251  33.156  77.350 -0.57  1.66    -0.568 OA
ATOM     41  N   GLU A   5      15.887  34.786  75.926 -0.52  1.82    -0.519 N 
ATOM     42  H   GLU A   5      16.363  35.701  75.909  0.31  0.60     0.305 HD
BRANCH  41  43
ATOM     43  CA  GLU A   5      15.263  34.159  74.801 -0.21  1.91    -0.206 C 
ATOM     44  HA  GLU A   5      15.183  33.182  74.941  0.14  1.39     0.140 H 
BRANCH  43  45
ATOM     45  CB  GLU A   5      13.892  34.770  74.460  0.01  1.91     0.007 C 
ATOM     46  HB2 GLU A   5      13.910  35.713  74.731 -0.01  1.49    -0.008 H 
ATOM     47  HB3 GLU A   5      13.745  34.657  73.497 -0.01  1.49    -0.008 H 
BRANCH  45  48
ATOM     48  CG  GLU A   5      12.719  34.103  75.186  0.07  1.91     0.068 C 
ATOM     49  HG2 GLU A   5      11.938  34.164  74.619 -0.05  1.49    -0.055 H 
ATOM     50  HG3 GLU A   5      12.982  33.205  75.428 -0.05  1.49    -0.055 H 
BRANCH  48  51
ATOM     51  CD  GLU A   5      12.426  34.866  76.468  0.82  1.91     0.818 C 
ATOM     52  OE2 GLU A   5      11.696  34.303  77.329 -0.82  1.66    -0.822 OA
ATOM     53  OE1 GLU A   5      12.920  36.015  76.607 -0.82  1.66    -0.822 OA
ENDBRANCH  48  51
ENDBRANCH  45  48
ENDBRANCH  43  45
BRANCH  43  54
ATOM     54  C   GLU A   5      16.179  34.424  73.609  0.74  1.91     0.742 C 
ATOM     55  O   GLU A   5      15.650  34.553  72.472 -0.79  1.66    -0.793 OA
ATOM     56  OXT GLU A   5      17.419  34.498  73.819 -0.79  1.66    -0.793 OA
ENDBRANCH  43  54
ENDBRANCH  41  43
ENDBRANCH  26  39
ENDBRANCH  24  26
BRANCH   1  57
ATOM     57  CA  PRO A   2      20.977  31.328  74.802 -0.03  1.91    -0.027 C 
ATOM     58  HA  PRO A   2      21.829  30.797  74.701  0.06  1.39     0.064 H 
ATOM     59  CB  PRO A   2      21.146  32.466  73.792 -0.01  1.91    -0.007 C 
ATOM     60  CG  PRO A   2      19.890  32.401  72.910  0.02  1.91     0.019 C 
ATOM     61  HB3 PRO A   2      21.962  32.336  73.231  0.03  1.49     0.025 H 
ATOM     62  HB2 PRO A   2      21.193  33.354  74.250  0.03  1.49     0.025 H 
ATOM     63  HG2 PRO A   2      19.195  33.009  73.264  0.02  1.49     0.021 H 
ATOM     64  HG3 PRO A   2      20.121  32.626  71.975  0.02  1.49     0.021 H 
ATOM     65  CD  PRO A   2      19.446  30.937  73.029  0.02  1.91     0.019 C 
ATOM     66  N   PRO A   2      19.834  30.557  74.381 -0.25  1.82    -0.255 N 
ATOM     67  HD3 PRO A   2      19.913  30.374  72.343  0.04  1.39     0.039 H 
ATOM     68  HD2 PRO A   2      18.456  30.861  72.898  0.04  1.39     0.039 H 
ATOM     69  C   SER A   1      19.765  29.318  74.811  0.62  1.91     0.616 C 
ATOM     70  O   SER A   1      20.685  28.872  75.494 -0.57  1.66    -0.572 OA
BRANCH  69  71
ATOM     71  CA  SER A   1      18.611  28.394  74.518  0.06  1.91     0.057 C 
ATOM     72  HA  SER A   1      18.049  28.814  73.749  0.08  1.10     0.078 H 
BRANCH  71  73
ATOM     73  CB  SER A   1      17.674  28.412  75.735  0.26  1.91     0.260 C 
ATOM     74  HB3 SER A   1      18.220  28.349  76.558  0.03  1.39     0.027 H 
ATOM     75  HB2 SER A   1      17.044  27.653  75.662  0.03  1.39     0.027 H 
BRANCH  73  76
ATOM     76  OG  SER A   1      16.941  29.628  75.756 -0.67  1.72    -0.671 OA
ATOM     77  HG  SER A   1      17.546  30.385  75.515  0.42  0.00     0.424 HD
ENDBRANCH  73  76
ENDBRANCH  71  73
BRANCH  71  78
ATOM     78  N   SER A   1      18.885  26.990  74.116  0.18  1.82     0.185 N 
ATOM     79  H3  SER A   1      19.537  26.589  74.757  0.19  0.60     0.190 HD
ATOM     80  H2  SER A   1      18.031  26.474  74.133  0.19  0.60     0.190 HD
ATOM     81  H   SER A   1      19.268  26.985  73.194  0.19  0.60     0.190 HD
ENDBRANCH  71  78
ENDBRANCH  69  71
ENDBRANCH   1  57
TORSDOF 20
ENDMDL
