MODEL 7
REMARK VINA RESULT:      -6.0      3.444      8.997
REMARK  15 active torsions:
REMARK  status: ('A' for Active; 'I' for Inactive)
REMARK    1  A    between atoms: N_1  and  CA_2 
REMARK    2  A    between atoms: CA_2  and  C_3 
REMARK    3  A    between atoms: CA_2  and  CB_5 
REMARK       I    between atoms: C_3  and  N_14 
REMARK    4  A    between atoms: CB_5  and  OG_6 
REMARK    5  A    between atoms: CA_15  and  C_16 
REMARK       I    between atoms: C_16  and  N_28 
REMARK       I    between atoms: N_28  and  CA_29 
REMARK       I    between atoms: CA_29  and  C_30 
REMARK       I    between atoms: CA_29  and  CB_32 
REMARK       I    between atoms: C_30  and  N_49 
REMARK       I    between atoms: CB_32  and  CG_33 
REMARK       I    between atoms: CZ_38  and  OH_39 
REMARK    6  A    between atoms: N_49  and  CA_50 
REMARK    7  A    between atoms: CA_50  and  CB_53 
REMARK    8  A    between atoms: CA_50  and  C_51 
REMARK       I    between atoms: C_51  and  N_66 
REMARK    9  A    between atoms: CB_53  and  CG_54 
REMARK   10  A    between atoms: CG_54  and  CD_55 
REMARK       I    between atoms: CD_55  and  NE2_64 
REMARK   11  A    between atoms: N_66  and  CA_67 
REMARK   12  A    between atoms: CA_67  and  CB_70 
REMARK   13  A    between atoms: CA_67  and  C_68 
REMARK   14  A    between atoms: CB_70  and  CG_71 
REMARK   15  A    between atoms: CG_71  and  CD_72 
ROOT
ATOM      1  C   PRO A   2      19.277  32.676  78.688  0.59  1.91     0.590 C 
ATOM      2  O   PRO A   2      18.697  32.199  79.660 -0.57  1.66    -0.575 OA
ATOM      3  N   TYR A   3      18.618  33.108  77.582 -0.42  1.82    -0.416 N 
ATOM      4  CA  TYR A   3      17.292  32.621  77.282 -0.00  1.91    -0.001 C 
ATOM      5  C   TYR A   3      17.210  31.387  76.421  0.60  1.91     0.597 C 
ATOM      6  O   TYR A   3      16.832  30.306  76.874 -0.57  1.66    -0.568 OA
ATOM      7  CB  TYR A   3      16.405  33.662  76.574 -0.02  1.91    -0.015 C 
ATOM      8  CG  TYR A   3      15.810  34.587  77.579 -0.00  1.91    -0.001 A 
ATOM      9  CD1 TYR A   3      16.444  35.747  77.960 -0.19  1.91    -0.191 A 
ATOM     10  CD2 TYR A   3      14.595  34.277  78.145 -0.19  1.91    -0.191 A 
ATOM     11  CE1 TYR A   3      15.866  36.587  78.885 -0.23  1.91    -0.234 A 
ATOM     12  CE2 TYR A   3      14.014  35.111  79.069 -0.23  1.91    -0.234 A 
ATOM     13  CZ  TYR A   3      14.649  36.270  79.440  0.32  1.91     0.323 A 
ATOM     14  OH  TYR A   3      14.048  37.125  80.388 -0.56  1.72    -0.558 OA
ATOM     15  HA  TYR A   3      16.821  32.414  78.177  0.09  1.39     0.088 H 
ATOM     16  HE1 TYR A   3      16.336  37.437  79.156  0.17  1.46     0.166 H 
ATOM     17  HE2 TYR A   3      13.124  34.873  79.475  0.17  1.46     0.166 H 
ATOM     18  H   TYR A   3      19.142  33.785  77.013  0.27  0.60     0.272 HD
ATOM     19  HD2 TYR A   3      14.126  33.433  77.878  0.17  1.46     0.170 H 
ATOM     20  HD1 TYR A   3      17.332  35.986  77.564  0.17  1.46     0.170 H 
ATOM     21  HB3 TYR A   3      15.685  33.180  76.112  0.03  1.49     0.029 H 
ATOM     22  HB2 TYR A   3      16.973  34.173  75.958  0.03  1.49     0.029 H 
ATOM     23  HH  TYR A   3      14.693  37.845  80.609  0.40  0.00     0.399 HD
ATOM     24  N   GLN A   4      17.671  31.519  75.152 -0.42  1.82    -0.416 N 
ATOM     25  H   GLN A   4      18.184  32.409  74.987  0.27  0.60     0.272 HD
ENDROOT
BRANCH  24  26
ATOM     26  CA  GLN A   4      17.453  30.506  74.150 -0.00  1.91    -0.003 C 
ATOM     27  HA  GLN A   4      16.665  29.959  74.426  0.09  1.39     0.085 H 
BRANCH  26  28
ATOM     28  CB  GLN A   4      17.389  31.072  72.723 -0.00  1.91    -0.004 C 
ATOM     29  HB2 GLN A   4      17.302  30.307  72.079  0.02  1.49     0.017 H 
ATOM     30  HB3 GLN A   4      16.575  31.655  72.647  0.02  1.49     0.017 H 
BRANCH  28  31
ATOM     31  CG  GLN A   4      18.604  31.901  72.309 -0.06  1.91    -0.065 C 
ATOM     32  HG3 GLN A   4      18.878  31.637  71.411  0.04  1.49     0.035 H 
ATOM     33  HG2 GLN A   4      19.304  31.793  72.979  0.04  1.49     0.035 H 
BRANCH  31  34
ATOM     34  CD  GLN A   4      18.165  33.358  72.284  0.70  1.91     0.695 C 
ATOM     35  OE1 GLN A   4      17.540  33.856  73.218 -0.61  1.66    -0.609 OA
ATOM     36  NE2 GLN A   4      18.514  34.071  71.180 -0.94  1.82    -0.941 N 
ATOM     37 2HE2 GLN A   4      19.048  33.589  70.467  0.43  0.60     0.425 HD
ATOM     38 1HE2 GLN A   4      18.243  35.040  71.092  0.43  0.60     0.425 HD
ENDBRANCH  31  34
ENDBRANCH  28  31
ENDBRANCH  26  28
BRANCH  26  39
ATOM     39  C   GLN A   4      18.657  29.626  74.140  0.60  1.91     0.597 C 
ATOM     40  N   GLU A   5      18.562  28.491  73.427 -0.52  1.82    -0.519 N 
ATOM     41  H   GLU A   5      17.654  28.340  72.972  0.31  0.60     0.305 HD
ATOM     42  O   GLN A   4      19.682  29.936  74.743 -0.57  1.66    -0.568 OA
BRANCH  40  43
ATOM     43  CA  GLU A   5      19.686  27.609  73.356 -0.21  1.91    -0.206 C 
ATOM     44  HA  GLU A   5      20.493  28.036  73.751  0.14  1.39     0.140 H 
BRANCH  43  45
ATOM     45  CB  GLU A   5      19.440  26.261  74.056  0.01  1.91     0.007 C 
ATOM     46  HB3 GLU A   5      20.261  26.018  74.533 -0.01  1.49    -0.008 H 
ATOM     47  HB2 GLU A   5      19.199  25.607  73.364 -0.01  1.49    -0.008 H 
BRANCH  45  48
ATOM     48  CG  GLU A   5      18.302  26.292  75.078  0.07  1.91     0.068 C 
ATOM     49  HG3 GLU A   5      17.863  25.437  75.070 -0.05  1.49    -0.055 H 
ATOM     50  HG2 GLU A   5      17.749  27.055  74.894 -0.05  1.49    -0.055 H 
BRANCH  48  51
ATOM     51  CD  GLU A   5      18.923  26.485  76.455  0.82  1.91     0.818 C 
ATOM     52  OE1 GLU A   5      19.723  25.604  76.867 -0.82  1.66    -0.822 OA
ATOM     53  OE2 GLU A   5      18.612  27.516  77.111 -0.82  1.66    -0.822 OA
ENDBRANCH  48  51
ENDBRANCH  45  48
ENDBRANCH  43  45
BRANCH  43  54
ATOM     54  C   GLU A   5      19.935  27.325  71.886  0.74  1.91     0.742 C 
ATOM     55  O   GLU A   5      20.425  26.206  71.580 -0.79  1.66    -0.793 OA
ATOM     56  OXT GLU A   5      19.639  28.220  71.050 -0.79  1.66    -0.793 OA
ENDBRANCH  43  54
ENDBRANCH  40  43
ENDBRANCH  26  39
ENDBRANCH  24  26
BRANCH   1  57
ATOM     57  CA  PRO A   2      20.729  33.010  78.827 -0.03  1.91    -0.027 C 
ATOM     58  N   PRO A   2      21.638  32.256  77.993 -0.25  1.82    -0.255 N 
ATOM     59  C   SER A   1      21.991  31.057  78.374  0.62  1.91     0.616 C 
ATOM     60  CD  PRO A   2      22.650  33.115  77.397  0.02  1.91     0.019 C 
ATOM     61  O   SER A   1      21.508  30.496  79.356 -0.57  1.66    -0.572 OA
ATOM     62  HD2 PRO A   2      22.539  33.170  76.396  0.04  1.39     0.039 H 
ATOM     63  CG  PRO A   2      22.454  34.500  78.031  0.02  1.91     0.019 C 
ATOM     64  HD3 PRO A   2      23.581  32.772  77.590  0.04  1.39     0.039 H 
ATOM     65  CB  PRO A   2      20.998  34.482  78.517 -0.01  1.91    -0.007 C 
ATOM     66  HG2 PRO A   2      22.578  35.216  77.356  0.02  1.49     0.021 H 
ATOM     67  HG3 PRO A   2      23.067  34.626  78.799  0.02  1.49     0.021 H 
ATOM     68  HB2 PRO A   2      20.396  34.818  77.797  0.03  1.49     0.025 H 
ATOM     69  HB3 PRO A   2      20.905  35.049  79.330  0.03  1.49     0.025 H 
ATOM     70  HA  PRO A   2      21.022  32.945  79.818  0.06  1.39     0.064 H 
BRANCH  59  71
ATOM     71  CA  SER A   1      23.064  30.409  77.555  0.06  1.91     0.057 C 
ATOM     72  HA  SER A   1      23.465  31.096  76.941  0.08  1.10     0.078 H 
BRANCH  71  73
ATOM     73  N   SER A   1      24.151  29.916  78.430  0.18  1.82     0.185 N 
ATOM     74  H2  SER A   1      25.021  29.982  77.943  0.19  0.60     0.190 HD
ATOM     75  H3  SER A   1      23.971  28.963  78.672  0.19  0.60     0.190 HD
ATOM     76  H   SER A   1      24.183  30.473  79.258  0.19  0.60     0.190 HD
ENDBRANCH  71  73
BRANCH  71  77
ATOM     77  CB  SER A   1      22.513  29.246  76.717  0.26  1.91     0.260 C 
ATOM     78  HB3 SER A   1      23.025  28.424  76.936  0.03  1.39     0.027 H 
ATOM     79  HB2 SER A   1      22.611  29.472  75.755  0.03  1.39     0.027 H 
BRANCH  77  80
ATOM     80  OG  SER A   1      21.140  29.028  77.004 -0.67  1.72    -0.671 OA
ATOM     81  HG  SER A   1      21.009  28.082  77.295  0.42  0.00     0.424 HD
ENDBRANCH  77  80
ENDBRANCH  71  77
ENDBRANCH  59  71
ENDBRANCH   1  57
TORSDOF 20
ENDMDL
