REMARK  15 active torsions:
REMARK  status: ('A' for Active; 'I' for Inactive)
REMARK    1  A    between atoms: N_1  and  CA_2 
REMARK    2  A    between atoms: CA_2  and  C_3 
REMARK    3  A    between atoms: CA_2  and  CB_5 
REMARK       I    between atoms: C_3  and  N_14 
REMARK    4  A    between atoms: CB_5  and  OG_6 
REMARK    5  A    between atoms: CA_15  and  C_16 
REMARK       I    between atoms: C_16  and  N_28 
REMARK       I    between atoms: N_28  and  CA_29 
REMARK       I    between atoms: CA_29  and  CB_32 
REMARK       I    between atoms: CA_29  and  C_30 
REMARK       I    between atoms: C_30  and  N_49 
REMARK       I    between atoms: CB_32  and  CG_33 
REMARK       I    between atoms: CZ_38  and  OH_39 
REMARK    6  A    between atoms: N_49  and  CA_50 
REMARK    7  A    between atoms: CA_50  and  CB_53 
REMARK    8  A    between atoms: CA_50  and  C_51 
REMARK       I    between atoms: C_51  and  N_66 
REMARK    9  A    between atoms: CB_53  and  CG_54 
REMARK   10  A    between atoms: CG_54  and  CD_55 
REMARK       I    between atoms: CD_55  and  NE2_64 
REMARK   11  A    between atoms: N_66  and  CA_67 
REMARK   12  A    between atoms: CA_67  and  CB_70 
REMARK   13  A    between atoms: CA_67  and  C_68 
REMARK   14  A    between atoms: CB_70  and  CG_71 
REMARK   15  A    between atoms: CG_71  and  CD_72 
ROOT
ATOM      1  C   PRO A   2      23.264  39.285  76.599  0.59  1.91     0.590 C 
ATOM      2  O   PRO A   2      23.673  39.365  75.446 -0.57  1.66    -0.575 OA
ATOM      3  N   TYR A   3      22.221  38.487  76.929 -0.42  1.82    -0.416 N 
ATOM      4  CA  TYR A   3      21.314  38.087  75.875 -0.00  1.91    -0.001 C 
ATOM      5  C   TYR A   3      20.143  38.983  75.584  0.60  1.91     0.597 C 
ATOM      6  O   TYR A   3      20.170  39.874  74.737 -0.57  1.66    -0.568 OA
ATOM      7  CB  TYR A   3      20.621  36.744  76.166 -0.02  1.91    -0.015 C 
ATOM      8  CG  TYR A   3      21.404  35.568  75.705 -0.00  1.91    -0.001 A 
ATOM      9  CD1 TYR A   3      22.635  35.245  76.225 -0.19  1.91    -0.191 A 
ATOM     10  CD2 TYR A   3      20.842  34.752  74.750 -0.19  1.91    -0.191 A 
ATOM     11  CE1 TYR A   3      23.301  34.130  75.767 -0.23  1.91    -0.234 A 
ATOM     12  CE2 TYR A   3      21.500  33.640  74.293 -0.23  1.91    -0.234 A 
ATOM     13  CZ  TYR A   3      22.737  33.328  74.801  0.32  1.91     0.323 A 
ATOM     14  OH  TYR A   3      23.416  32.183  74.333 -0.56  1.72    -0.558 OA
ATOM     15  HA  TYR A   3      21.869  37.995  75.002  0.09  1.39     0.088 H 
ATOM     16  HE1 TYR A   3      24.210  33.898  76.143  0.17  1.46     0.166 H 
ATOM     17  HE2 TYR A   3      21.083  33.056  73.591  0.17  1.46     0.166 H 
ATOM     18  H   TYR A   3      22.156  38.228  77.904  0.27  0.60     0.272 HD
ATOM     19  HD2 TYR A   3      19.935  34.975  74.383  0.17  1.46     0.170 H 
ATOM     20  HD1 TYR A   3      23.049  35.814  76.932  0.17  1.46     0.170 H 
ATOM     21  HB3 TYR A   3      19.741  36.752  75.700  0.03  1.49     0.029 H 
ATOM     22  HB2 TYR A   3      20.486  36.681  77.151  0.03  1.49     0.029 H 
ATOM     23  HH  TYR A   3      24.113  31.943  74.998  0.40  0.00     0.399 HD
ATOM     24  N   GLN A   4      19.132  38.825  76.467 -0.42  1.82    -0.416 N 
ATOM     25  H   GLN A   4      19.451  38.234  77.315  0.27  0.60     0.272 HD
ENDROOT
BRANCH  24  26
ATOM     26  CA  GLN A   4      17.791  39.338  76.368 -0.00  1.91    -0.003 C 
ATOM     27  HA  GLN A   4      17.813  40.161  75.841  0.09  1.39     0.085 H 
BRANCH  26  28
ATOM     28  CB  GLN A   4      16.750  38.236  76.092 -0.00  1.91    -0.004 C 
ATOM     29  HB2 GLN A   4      16.680  37.652  76.911  0.02  1.49     0.017 H 
ATOM     30  HB3 GLN A   4      15.853  38.675  75.943  0.02  1.49     0.017 H 
BRANCH  28  31
ATOM     31  CG  GLN A   4      17.032  37.328  74.892 -0.06  1.91    -0.065 C 
ATOM     32  HG3 GLN A   4      16.493  36.512  74.982  0.04  1.49     0.035 H 
ATOM     33  HG2 GLN A   4      17.995  37.142  74.858  0.04  1.49     0.035 H 
BRANCH  31  34
ATOM     34  CD  GLN A   4      16.623  38.060  73.634  0.70  1.91     0.695 C 
ATOM     35  NE2 GLN A   4      15.669  37.469  72.866 -0.94  1.82    -0.941 N 
ATOM     36 2HE2 GLN A   4      15.313  36.574  73.186  0.43  0.60     0.425 HD
ATOM     37 1HE2 GLN A   4      15.345  37.913  72.023  0.43  0.60     0.425 HD
ATOM     38  OE1 GLN A   4      17.132  39.139  73.346 -0.61  1.66    -0.609 OA
ENDBRANCH  31  34
ENDBRANCH  28  31
ENDBRANCH  26  28
BRANCH  26  39
ATOM     39  C   GLN A   4      17.512  39.689  77.787  0.60  1.91     0.597 C 
ATOM     40  O   GLN A   4      18.087  40.622  78.336 -0.57  1.66    -0.568 OA
ATOM     41  N   GLU A   5      16.590  38.935  78.413 -0.52  1.82    -0.519 N 
ATOM     42  H   GLU A   5      16.100  38.264  77.802  0.31  0.60     0.305 HD
BRANCH  41  43
ATOM     43  CA  GLU A   5      16.356  39.099  79.815 -0.21  1.91    -0.206 C 
ATOM     44  HA  GLU A   5      15.988  39.997  80.009  0.14  1.39     0.140 H 
BRANCH  43  45
ATOM     45  CB  GLU A   5      15.447  38.004  80.402  0.01  1.91     0.007 C 
ATOM     46  HB2 GLU A   5      14.528  38.193  80.113 -0.01  1.49    -0.008 H 
ATOM     47  HB3 GLU A   5      15.774  37.138  80.077 -0.01  1.49    -0.008 H 
BRANCH  45  48
ATOM     48  CG  GLU A   5      15.448  37.953  81.933  0.07  1.91     0.068 C 
ATOM     49  HG2 GLU A   5      14.984  37.151  82.209 -0.05  1.49    -0.055 H 
ATOM     50  HG3 GLU A   5      16.363  38.024  82.239 -0.05  1.49    -0.055 H 
BRANCH  48  51
ATOM     51  CD  GLU A   5      14.680  39.148  82.474  0.82  1.91     0.818 C 
ATOM     52  OE2 GLU A   5      14.690  39.333  83.721 -0.82  1.66    -0.822 OA
ATOM     53  OE1 GLU A   5      14.073  39.889  81.657 -0.82  1.66    -0.822 OA
ENDBRANCH  48  51
ENDBRANCH  45  48
ENDBRANCH  43  45
BRANCH  43  54
ATOM     54  C   GLU A   5      17.719  38.957  80.488  0.74  1.91     0.742 C 
ATOM     55  O   GLU A   5      18.331  37.862  80.360 -0.79  1.66    -0.793 OA
ATOM     56  OXT GLU A   5      18.164  39.938  81.141 -0.79  1.66    -0.793 OA
ENDBRANCH  43  54
ENDBRANCH  41  43
ENDBRANCH  26  39
ENDBRANCH  24  26
BRANCH   1  57
ATOM     57  CA  PRO A   2      24.131  39.872  77.669 -0.03  1.91    -0.027 C 
ATOM     58  HA  PRO A   2      24.331  39.194  78.389  0.06  1.39     0.064 H 
ATOM     59  CB  PRO A   2      23.477  41.023  78.437 -0.01  1.91    -0.007 C 
ATOM     60  CG  PRO A   2      24.300  42.265  78.063  0.02  1.91     0.019 C 
ATOM     61  HB3 PRO A   2      23.519  40.872  79.424  0.03  1.49     0.025 H 
ATOM     62  HB2 PRO A   2      22.525  41.151  78.159  0.03  1.49     0.025 H 
ATOM     63  HG2 PRO A   2      23.884  42.729  77.296  0.02  1.49     0.021 H 
ATOM     64  HG3 PRO A   2      24.381  42.865  78.845  0.02  1.49     0.021 H 
ATOM     65  CD  PRO A   2      25.666  41.684  77.675  0.02  1.91     0.019 C 
ATOM     66  N   PRO A   2      25.348  40.387  77.092 -0.25  1.82    -0.255 N 
ATOM     67  HD3 PRO A   2      26.248  41.587  78.486  0.04  1.39     0.039 H 
ATOM     68  HD2 PRO A   2      26.123  42.280  77.012  0.04  1.39     0.039 H 
ATOM     69  C   SER A   1      26.273  39.509  76.780  0.62  1.91     0.616 C 
ATOM     70  O   SER A   1      26.080  38.322  77.038 -0.57  1.66    -0.572 OA
BRANCH  69  71
ATOM     71  CA  SER A   1      27.576  39.868  76.113  0.06  1.91     0.057 C 
ATOM     72  HA  SER A   1      27.671  39.284  75.257  0.08  1.10     0.078 H 
BRANCH  71  73
ATOM     73  CB  SER A   1      28.717  39.400  77.028  0.26  1.91     0.260 C 
ATOM     74  HB3 SER A   1      28.492  38.505  77.385  0.03  1.39     0.027 H 
ATOM     75  HB2 SER A   1      28.831  40.059  77.757  0.03  1.39     0.027 H 
BRANCH  73  76
ATOM     76  OG  SER A   1      29.923  39.314  76.283 -0.67  1.72    -0.671 OA
ATOM     77  HG  SER A   1      29.818  38.634  75.559  0.42  0.00     0.424 HD
ENDBRANCH  73  76
ENDBRANCH  71  73
BRANCH  71  78
ATOM     78  N   SER A   1      27.815  41.272  75.689  0.18  1.82     0.185 N 
ATOM     79  H3  SER A   1      27.167  41.509  74.967  0.19  0.60     0.190 HD
ATOM     80  H2  SER A   1      27.685  41.875  76.474  0.19  0.60     0.190 HD
ATOM     81  H   SER A   1      28.750  41.354  75.348  0.19  0.60     0.190 HD
ENDBRANCH  71  78
ENDBRANCH  69  71
ENDBRANCH   1  57
TORSDOF 20
