REMARK  15 active torsions:
REMARK  status: ('A' for Active; 'I' for Inactive)
REMARK    1  A    between atoms: N_1  and  CA_2 
REMARK    2  A    between atoms: CA_2  and  C_3 
REMARK    3  A    between atoms: CA_2  and  CB_5 
REMARK       I    between atoms: C_3  and  N_14 
REMARK    4  A    between atoms: CB_5  and  OG_6 
REMARK    5  A    between atoms: CA_15  and  C_16 
REMARK       I    between atoms: C_16  and  N_28 
REMARK       I    between atoms: N_28  and  CA_29 
REMARK       I    between atoms: CA_29  and  C_30 
REMARK       I    between atoms: CA_29  and  CB_32 
REMARK       I    between atoms: C_30  and  N_49 
REMARK       I    between atoms: CB_32  and  CG_33 
REMARK       I    between atoms: CZ_38  and  OH_39 
REMARK    6  A    between atoms: N_49  and  CA_50 
REMARK    7  A    between atoms: CA_50  and  CB_53 
REMARK    8  A    between atoms: CA_50  and  C_51 
REMARK       I    between atoms: C_51  and  N_66 
REMARK    9  A    between atoms: CB_53  and  CG_54 
REMARK   10  A    between atoms: CG_54  and  CD_55 
REMARK       I    between atoms: CD_55  and  NE2_64 
REMARK   11  A    between atoms: N_66  and  CA_67 
REMARK   12  A    between atoms: CA_67  and  CB_70 
REMARK   13  A    between atoms: CA_67  and  C_68 
REMARK   14  A    between atoms: CB_70  and  CG_71 
REMARK   15  A    between atoms: CG_71  and  CD_72 
ROOT
ATOM      1  C   PRO A   2      23.222  39.105  76.660  0.59  1.91     0.590 C 
ATOM      2  O   PRO A   2      23.639  39.133  75.505 -0.57  1.66    -0.575 OA
ATOM      3  N   TYR A   3      22.169  38.336  77.039 -0.42  1.82    -0.416 N 
ATOM      4  CA  TYR A   3      21.204  37.884  76.065 -0.00  1.91    -0.001 C 
ATOM      5  C   TYR A   3      20.016  38.782  75.832  0.60  1.91     0.597 C 
ATOM      6  O   TYR A   3      19.868  39.398  74.777 -0.57  1.66    -0.568 OA
ATOM      7  CB  TYR A   3      20.604  36.505  76.395 -0.02  1.91    -0.015 C 
ATOM      8  CG  TYR A   3      21.529  35.429  75.940 -0.00  1.91    -0.001 A 
ATOM      9  CD1 TYR A   3      22.512  34.925  76.760 -0.19  1.91    -0.191 A 
ATOM     10  CD2 TYR A   3      21.400  34.923  74.667 -0.19  1.91    -0.191 A 
ATOM     11  CE1 TYR A   3      23.347  33.925  76.314 -0.23  1.91    -0.234 A 
ATOM     12  CE2 TYR A   3      22.231  33.926  74.217 -0.23  1.91    -0.234 A 
ATOM     13  CZ  TYR A   3      23.206  33.423  75.042  0.32  1.91     0.323 A 
ATOM     14  OH  TYR A   3      24.056  32.397  74.577 -0.56  1.72    -0.558 OA
ATOM     15  HA  TYR A   3      21.694  37.768  75.164  0.09  1.39     0.088 H 
ATOM     16  HE1 TYR A   3      24.063  33.559  76.923  0.17  1.46     0.166 H 
ATOM     17  HE2 TYR A   3      22.126  33.564  73.284  0.17  1.46     0.166 H 
ATOM     18  H   TYR A   3      22.139  38.124  78.045  0.27  0.60     0.272 HD
ATOM     19  HD2 TYR A   3      20.690  35.285  74.060  0.17  1.46     0.170 H 
ATOM     20  HD1 TYR A   3      22.625  35.285  77.687  0.17  1.46     0.170 H 
ATOM     21  HB3 TYR A   3      19.752  36.424  75.914  0.03  1.49     0.029 H 
ATOM     22  HB2 TYR A   3      20.494  36.449  77.369  0.03  1.49     0.029 H 
ATOM     23  HH  TYR A   3      24.757  32.241  75.262  0.40  0.00     0.399 HD
ATOM     24  N   GLN A   4      19.180  38.943  76.888 -0.42  1.82    -0.416 N 
ATOM     25  H   GLN A   4      19.560  38.565  77.780  0.27  0.60     0.272 HD
ENDROOT
BRANCH  24  26
ATOM     26  CA  GLN A   4      17.894  39.581  76.755 -0.00  1.91    -0.003 C 
ATOM     27  HA  GLN A   4      18.005  40.387  76.177  0.09  1.39     0.085 H 
BRANCH  26  28
ATOM     28  CB  GLN A   4      16.782  38.613  76.321 -0.00  1.91    -0.004 C 
ATOM     29  HB2 GLN A   4      16.671  37.914  77.032  0.02  1.49     0.017 H 
ATOM     30  HB3 GLN A   4      15.924  39.129  76.236  0.02  1.49     0.017 H 
BRANCH  28  31
ATOM     31  CG  GLN A   4      17.037  37.900  74.994 -0.06  1.91    -0.065 C 
ATOM     32  HG3 GLN A   4      17.840  37.352  75.077  0.04  1.49     0.035 H 
ATOM     33  HG2 GLN A   4      17.090  38.565  74.282  0.04  1.49     0.035 H 
BRANCH  31  34
ATOM     34  CD  GLN A   4      15.843  36.993  74.735  0.70  1.91     0.695 C 
ATOM     35  OE1 GLN A   4      15.514  36.122  75.537 -0.61  1.66    -0.609 OA
ATOM     36  NE2 GLN A   4      15.162  37.212  73.578 -0.94  1.82    -0.941 N 
ATOM     37 2HE2 GLN A   4      15.488  37.966  72.985  0.43  0.60     0.425 HD
ATOM     38 1HE2 GLN A   4      14.368  36.637  73.338  0.43  0.60     0.425 HD
ENDBRANCH  31  34
ENDBRANCH  28  31
ENDBRANCH  26  28
BRANCH  26  39
ATOM     39  C   GLN A   4      17.478  40.028  78.115  0.60  1.91     0.597 C 
ATOM     40  N   GLU A   5      16.238  40.535  78.224 -0.52  1.82    -0.519 N 
ATOM     41  H   GLU A   5      15.708  40.575  77.346  0.31  0.60     0.305 HD
ATOM     42  O   GLN A   4      18.229  39.924  79.082 -0.57  1.66    -0.568 OA
BRANCH  40  43
ATOM     43  CA  GLU A   5      15.765  40.965  79.504 -0.21  1.91    -0.206 C 
ATOM     44  HA  GLU A   5      14.844  41.333  79.433  0.14  1.39     0.140 H 
BRANCH  43  45
ATOM     45  CB  GLU A   5      15.777  39.844  80.558  0.01  1.91     0.007 C 
ATOM     46  HB3 GLU A   5      16.710  39.574  80.696 -0.01  1.49    -0.008 H 
ATOM     47  HB2 GLU A   5      15.220  39.110  80.218 -0.01  1.49    -0.008 H 
BRANCH  45  48
ATOM     48  CG  GLU A   5      15.211  40.263  81.916  0.07  1.91     0.068 C 
ATOM     49  HG3 GLU A   5      14.277  40.461  81.808 -0.05  1.49    -0.055 H 
ATOM     50  HG2 GLU A   5      15.758  40.971  82.267 -0.05  1.49    -0.055 H 
BRANCH  48  51
ATOM     51  CD  GLU A   5      15.330  39.070  82.855  0.82  1.91     0.818 C 
ATOM     52  OE1 GLU A   5      16.485  38.640  83.113 -0.82  1.66    -0.822 OA
ATOM     53  OE2 GLU A   5      14.272  38.577  83.331 -0.82  1.66    -0.822 OA
ENDBRANCH  48  51
ENDBRANCH  45  48
ENDBRANCH  43  45
BRANCH  43  54
ATOM     54  C   GLU A   5      16.708  42.055  79.982  0.74  1.91     0.742 C 
ATOM     55  O   GLU A   5      16.856  43.066  79.246 -0.79  1.66    -0.793 OA
ATOM     56  OXT GLU A   5      17.290  41.893  81.087 -0.79  1.66    -0.793 OA
ENDBRANCH  43  54
ENDBRANCH  40  43
ENDBRANCH  26  39
ENDBRANCH  24  26
BRANCH   1  57
ATOM     57  CA  PRO A   2      24.051  39.752  77.725 -0.03  1.91    -0.027 C 
ATOM     58  N   PRO A   2      25.386  40.149  77.337 -0.25  1.82    -0.255 N 
ATOM     59  C   SER A   1      26.327  39.244  77.309  0.62  1.91     0.616 C 
ATOM     60  CD  PRO A   2      25.717  41.471  77.849  0.02  1.91     0.019 C 
ATOM     61  O   SER A   1      26.113  38.048  77.496 -0.57  1.66    -0.572 OA
ATOM     62  HD2 PRO A   2      25.819  42.138  77.099  0.04  1.39     0.039 H 
ATOM     63  CG  PRO A   2      24.551  41.874  78.763  0.02  1.91     0.019 C 
ATOM     64  HD3 PRO A   2      26.581  41.455  78.372  0.04  1.39     0.039 H 
ATOM     65  CB  PRO A   2      23.380  41.011  78.271 -0.01  1.91    -0.007 C 
ATOM     66  HG2 PRO A   2      24.334  42.835  78.654  0.02  1.49     0.021 H 
ATOM     67  HG3 PRO A   2      24.755  41.661  79.709  0.02  1.49     0.021 H 
ATOM     68  HB2 PRO A   2      22.879  41.495  77.558  0.03  1.49     0.025 H 
ATOM     69  HB3 PRO A   2      22.772  40.800  79.031  0.03  1.49     0.025 H 
ATOM     70  HA  PRO A   2      24.092  39.151  78.567  0.06  1.39     0.064 H 
BRANCH  59  71
ATOM     71  CA  SER A   1      27.713  39.760  77.069  0.06  1.91     0.057 C 
ATOM     72  HA  SER A   1      27.771  40.705  77.405  0.08  1.10     0.078 H 
BRANCH  71  73
ATOM     73  N   SER A   1      28.697  38.962  77.834  0.18  1.82     0.185 N 
ATOM     74  H2  SER A   1      28.564  37.993  77.630  0.19  0.60     0.190 HD
ATOM     75  H3  SER A   1      28.562  39.123  78.811  0.19  0.60     0.190 HD
ATOM     76  H   SER A   1      29.620  39.239  77.571  0.19  0.60     0.190 HD
ENDBRANCH  71  73
BRANCH  71  77
ATOM     77  CB  SER A   1      28.078  39.732  75.578  0.26  1.91     0.260 C 
ATOM     78  HB3 SER A   1      29.010  40.058  75.472  0.03  1.39     0.027 H 
ATOM     79  HB2 SER A   1      27.446  40.317  75.084  0.03  1.39     0.027 H 
BRANCH  77  80
ATOM     80  OG  SER A   1      27.987  38.412  75.064 -0.67  1.72    -0.671 OA
ATOM     81  HG  SER A   1      27.390  38.408  74.264  0.42  0.00     0.424 HD
ENDBRANCH  77  80
ENDBRANCH  71  77
ENDBRANCH  59  71
ENDBRANCH   1  57
TORSDOF 20
