REMARK  21 active torsions:
REMARK  status: ('A' for Active; 'I' for Inactive)
REMARK    1  A    between atoms: N_1  and  CA_2 
REMARK    2  A    between atoms: CA_2  and  C_3 
REMARK    3  A    between atoms: CA_2  and  CB_5 
REMARK       I    between atoms: C_3  and  N_17 
REMARK    4  A    between atoms: CB_5  and  CG2_7 
REMARK    5  A    between atoms: CB_5  and  OG1_6 
REMARK    6  A    between atoms: N_17  and  CA_18 
REMARK    7  A    between atoms: CA_18  and  C_19 
REMARK    8  A    between atoms: CA_18  and  CB_21 
REMARK       I    between atoms: C_19  and  N_39 
REMARK    9  A    between atoms: CB_21  and  CG_22 
REMARK   10  A    between atoms: CG_22  and  CD_23 
REMARK   11  A    between atoms: CD_23  and  CE_24 
REMARK   12  A    between atoms: CE_24  and  NZ_25 
REMARK       I    between atoms: N_39  and  CA_40 
REMARK       I    between atoms: CA_40  and  C_41 
REMARK       I    between atoms: CA_40  and  CB_43 
REMARK       I    between atoms: C_41  and  N_50 
REMARK       I    between atoms: CB_43  and  OG_44 
REMARK       I    between atoms: CA_51  and  C_52 
REMARK       I    between atoms: C_52  and  N_64 
REMARK       I    between atoms: N_64  and  CA_65 
REMARK       I    between atoms: CA_65  and  CB_68 
REMARK       I    between atoms: CA_65  and  C_66 
REMARK       I    between atoms: C_66  and  N_85 
REMARK       I    between atoms: CB_68  and  CG_69 
REMARK       I    between atoms: CZ_74  and  OH_75 
REMARK       I    between atoms: N_85  and  CA_86 
REMARK       I    between atoms: CA_86  and  C_87 
REMARK       I    between atoms: CA_86  and  CB_89 
REMARK       I    between atoms: C_87  and  N_102 
REMARK       I    between atoms: CB_89  and  CG_90 
REMARK       I    between atoms: CG_90  and  CD_91 
REMARK       I    between atoms: CD_91  and  NE2_100 
REMARK   13  A    between atoms: N_102  and  CA_103 
REMARK   14  A    between atoms: CA_103  and  C_104 
REMARK   15  A    between atoms: CA_103  and  CB_106 
REMARK       I    between atoms: C_104  and  N_117 
REMARK   16  A    between atoms: CB_106  and  CG_107 
REMARK   17  A    between atoms: CG_107  and  CD_108 
REMARK   18  A    between atoms: N_117  and  CA_118 
REMARK   19  A    between atoms: CA_118  and  C_119 
REMARK   20  A    between atoms: CA_118  and  CB_121 
REMARK   21  A    between atoms: CB_121  and  CG_122 
ROOT
ATOM      1  C   LYS A   2      23.428  33.339  72.940  0.73  1.91     0.734 C 
ATOM      2  O   LYS A   2      22.841  32.503  72.254 -0.59  1.66    -0.589 OA
ATOM      3  N   SER A   3      24.746  33.264  73.215 -0.42  1.82    -0.416 N 
ATOM      4  CA  SER A   3      25.524  32.148  72.767 -0.02  1.91    -0.025 C 
ATOM      5  C   SER A   3      25.391  31.088  73.811  0.60  1.91     0.597 C 
ATOM      6  O   SER A   3      25.566  31.331  75.004 -0.57  1.66    -0.568 OA
ATOM      7  CB  SER A   3      27.018  32.478  72.629  0.21  1.91     0.212 C 
ATOM      8  OG  SER A   3      27.736  31.338  72.187 -0.65  1.72    -0.655 OA
ATOM      9  H   SER A   3      25.112  34.064  73.759  0.27  0.60     0.272 HD
ATOM     10  HA  SER A   3      25.129  31.806  71.919  0.08  1.39     0.084 H 
ATOM     11  HB3 SER A   3      27.364  32.757  73.516  0.04  1.39     0.035 H 
ATOM     12  HB2 SER A   3      27.123  33.207  71.965  0.04  1.39     0.035 H 
ATOM     13  HG  SER A   3      28.547  31.213  72.757  0.43  0.00     0.427 HD
ATOM     14  N   PRO A   4      25.027  29.918  73.370 -0.25  1.82    -0.255 N 
ATOM     15  CA  PRO A   4      24.773  28.832  74.274 -0.03  1.91    -0.027 C 
ATOM     16  C   PRO A   4      25.811  28.566  75.327  0.59  1.91     0.590 C 
ATOM     17  O   PRO A   4      25.711  29.122  76.419 -0.57  1.66    -0.575 OA
ATOM     18  CD  PRO A   4      25.416  29.448  72.050  0.02  1.91     0.019 C 
ATOM     19  CB  PRO A   4      24.581  27.607  73.384 -0.01  1.91    -0.007 C 
ATOM     20  CG  PRO A   4      25.478  27.914  72.172  0.02  1.91     0.019 C 
ATOM     21  HG2 PRO A   4      26.403  27.614  72.350  0.02  1.49     0.021 H 
ATOM     22  HA  PRO A   4      23.838  28.945  74.716  0.06  1.39     0.064 H 
ATOM     23  HD3 PRO A   4      24.742  29.713  71.351  0.04  1.39     0.039 H 
ATOM     24  HD2 PRO A   4      26.314  29.810  71.781  0.04  1.39     0.039 H 
ATOM     25  HG3 PRO A   4      25.111  27.483  71.361  0.02  1.49     0.021 H 
ATOM     26  HB3 PRO A   4      23.638  27.513  73.090  0.03  1.49     0.025 H 
ATOM     27  HB2 PRO A   4      24.893  26.778  73.832  0.03  1.49     0.025 H 
ATOM     28  N   TYR A   5      26.794  27.684  75.034 -0.42  1.82    -0.416 N 
ATOM     29  CA  TYR A   5      27.777  27.324  76.020 -0.00  1.91    -0.001 C 
ATOM     30  C   TYR A   5      28.899  28.303  76.180  0.60  1.91     0.597 C 
ATOM     31  O   TYR A   5      29.162  28.788  77.280 -0.57  1.66    -0.568 OA
ATOM     32  CB  TYR A   5      28.411  25.947  75.765 -0.02  1.91    -0.015 C 
ATOM     33  CG  TYR A   5      27.332  24.943  75.977 -0.00  1.91    -0.001 A 
ATOM     34  CD1 TYR A   5      26.483  24.613  74.948 -0.19  1.91    -0.191 A 
ATOM     35  CD2 TYR A   5      27.165  24.339  77.202 -0.19  1.91    -0.191 A 
ATOM     36  CE1 TYR A   5      25.482  23.691  75.138 -0.23  1.91    -0.234 A 
ATOM     37  CE2 TYR A   5      26.165  23.415  77.398 -0.23  1.91    -0.234 A 
ATOM     38  CZ  TYR A   5      25.323  23.090  76.363  0.32  1.91     0.323 A 
ATOM     39  OH  TYR A   5      24.295  22.142  76.554 -0.56  1.72    -0.558 OA
ATOM     40  HA  TYR A   5      27.300  27.234  76.926  0.09  1.39     0.088 H 
ATOM     41  HE1 TYR A   5      24.863  23.454  74.377  0.17  1.46     0.166 H 
ATOM     42  HE2 TYR A   5      26.050  22.979  78.296  0.17  1.46     0.166 H 
ATOM     43  H   TYR A   5      26.760  27.317  74.069  0.27  0.60     0.272 HD
ATOM     44  HD2 TYR A   5      27.777  24.572  77.958  0.17  1.46     0.170 H 
ATOM     45  HD1 TYR A   5      26.592  25.047  74.051  0.17  1.46     0.170 H 
ATOM     46  HB3 TYR A   5      29.111  25.811  76.421  0.03  1.49     0.029 H 
ATOM     47  HB2 TYR A   5      28.705  25.917  74.843  0.03  1.49     0.029 H 
ATOM     48  HH  TYR A   5      24.531  21.583  77.340  0.40  0.00     0.399 HD
ATOM     49  N   GLN A   6      29.570  28.659  75.065 -0.42  1.82    -0.416 N 
ATOM     50  CA  GLN A   6      30.777  29.428  75.197 -0.00  1.91    -0.003 C 
ATOM     51  C   GLN A   6      30.576  30.767  74.585  0.60  1.91     0.597 C 
ATOM     52  O   GLN A   6      29.871  30.912  73.591 -0.57  1.66    -0.568 OA
ATOM     53  CB  GLN A   6      31.983  28.800  74.484 -0.00  1.91    -0.004 C 
ATOM     54  CG  GLN A   6      31.836  28.780  72.961 -0.06  1.91    -0.065 C 
ATOM     55  CD  GLN A   6      30.691  27.848  72.597  0.70  1.91     0.695 C 
ATOM     56  HG2 GLN A   6      31.620  29.686  72.652  0.04  1.49     0.035 H 
ATOM     57  HA  GLN A   6      30.963  29.551  76.179  0.09  1.39     0.085 H 
ATOM     58  HG3 GLN A   6      32.666  28.435  72.567  0.04  1.49     0.035 H 
ATOM     59  H   GLN A   6      29.154  28.344  74.188  0.27  0.60     0.272 HD
ATOM     60  HB3 GLN A   6      32.087  27.859  74.796  0.02  1.49     0.017 H 
ATOM     61  HB2 GLN A   6      32.799  29.326  74.708  0.02  1.49     0.017 H 
ATOM     62 2HE2 GLN A   6      31.830  26.245  73.104  0.43  0.60     0.425 HD
ATOM     63  OE1 GLN A   6      29.624  28.292  72.174 -0.61  1.66    -0.609 OA
ATOM     64  NE2 GLN A   6      30.914  26.518  72.764 -0.94  1.82    -0.941 N 
ATOM     65 1HE2 GLN A   6      30.191  25.848  72.554  0.43  0.60     0.425 HD
ATOM     66  N   GLU A   7      31.079  31.811  75.264 -0.52  1.82    -0.516 N 
ATOM     67  H   GLU A   7      31.507  31.556  76.176  0.29  0.60     0.294 HD
ENDROOT
BRANCH  66  68
ATOM     68  CA  GLU A   7      31.010  33.141  74.741  0.04  1.91     0.040 C 
ATOM     69  HA  GLU A   7      30.122  33.272  74.252  0.11  1.39     0.111 H 
BRANCH  68  70
ATOM     70  C   GLU A   7      32.140  33.468  73.818  0.54  1.91     0.537 C 
ATOM     71  O   GLU A   7      31.936  33.948  72.703 -0.58  1.66    -0.582 OA
ATOM     72  N   PHE A   8      33.376  33.191  74.274 -0.38  1.82    -0.382 N 
ATOM     73  H   PHE A   8      33.392  32.691  75.180  0.27  0.60     0.268 HD
BRANCH  72  74
ATOM     74  CA  PHE A   8      34.538  33.577  73.529 -0.18  1.91    -0.182 C 
ATOM     75  HA  PHE A   8      34.231  33.992  72.681  0.11  1.39     0.110 H 
BRANCH  74  76
ATOM     76  C   PHE A   8      35.251  32.289  73.147  0.77  1.91     0.766 C 
ATOM     77  OXT PHE A   8      34.762  31.195  73.539 -0.80  1.66    -0.803 OA
ATOM     78  O   PHE A   8      36.300  32.383  72.458 -0.80  1.66    -0.803 OA
ENDBRANCH  74  76
BRANCH  74  79
ATOM     79  CB  PHE A   8      35.553  34.379  74.367 -0.10  1.91    -0.096 C 
ATOM     80  HB3 PHE A   8      36.320  34.565  73.800  0.04  1.49     0.044 H 
ATOM     81  HB2 PHE A   8      35.758  33.856  75.160  0.04  1.49     0.044 H 
BRANCH  79  82
ATOM     82  CG  PHE A   8      34.943  35.675  74.791  0.06  1.91     0.055 A 
ATOM     83  CD2 PHE A   8      35.300  36.855  74.179 -0.13  1.91    -0.130 A 
ATOM     84  HD2 PHE A   8      35.978  36.843  73.437  0.14  1.46     0.141 H 
ATOM     85  CE2 PHE A   8      34.742  38.049  74.571 -0.18  1.91    -0.185 A 
ATOM     86  HE2 PHE A   8      35.014  38.910  74.098  0.15  1.46     0.146 H 
ATOM     87  CZ  PHE A   8      33.823  38.080  75.592 -0.09  1.91    -0.094 A 
ATOM     88  HZ  PHE A   8      33.412  38.947  75.878  0.13  1.46     0.128 H 
ATOM     89  CE1 PHE A   8      33.472  36.911  76.219 -0.18  1.91    -0.185 A 
ATOM     90  HE1 PHE A   8      32.798  36.917  76.975  0.15  1.46     0.146 H 
ATOM     91  CD1 PHE A   8      34.034  35.720  75.823 -0.13  1.91    -0.130 A 
ATOM     92  HD1 PHE A   8      33.776  34.876  76.296  0.14  1.46     0.141 H 
ENDBRANCH  79  82
ENDBRANCH  74  79
ENDBRANCH  72  74
ENDBRANCH  68  70
BRANCH  68  93
ATOM     93  CB  GLU A   7      31.017  34.193  75.859  0.06  1.91     0.056 C 
ATOM     94  HB3 GLU A   7      30.957  35.074  75.442 -0.02  1.49    -0.017 H 
ATOM     95  HB2 GLU A   7      31.830  34.066  76.384 -0.02  1.49    -0.017 H 
BRANCH  93  96
ATOM     96  CG  GLU A   7      29.826  34.048  76.808  0.01  1.91     0.014 C 
ATOM     97  HG2 GLU A   7      29.825  33.150  77.159 -0.04  1.49    -0.043 H 
ATOM     98  HG3 GLU A   7      29.872  34.752  77.465 -0.04  1.49    -0.043 H 
BRANCH  96  99
ATOM     99  CD  GLU A   7      28.545  34.239  76.008  0.81  1.91     0.805 C 
ATOM    100  OE1 GLU A   7      28.621  34.841  74.905 -0.82  1.66    -0.819 OA
ATOM    101  OE2 GLU A   7      27.472  33.789  76.491 -0.82  1.66    -0.819 OA
ENDBRANCH  96  99
ENDBRANCH  93  96
ENDBRANCH  68  93
ENDBRANCH  66  68
BRANCH   1 102
ATOM    102  CA  LYS A   2      22.723  34.533  73.488 -0.24  1.91    -0.240 C 
ATOM    103  HA  LYS A   2      22.772  35.280  72.822  0.14  1.39     0.143 H 
BRANCH 102 104
ATOM    104  N   LYS A   2      21.355  34.176  73.700 -0.35  1.82    -0.348 N 
ATOM    105  H   LYS A   2      21.009  33.875  74.703  0.27  0.60     0.275 HD
ATOM    106  C   THR A   1      20.331  34.135  72.839  0.62  1.91     0.616 C 
ATOM    107  O   THR A   1      20.450  34.370  71.640 -0.57  1.66    -0.572 OA
BRANCH 106 108
ATOM    108  CA  THR A   1      19.003  33.744  73.412  0.00  1.91     0.003 C 
ATOM    109  HA  THR A   1      18.454  34.554  73.549  0.11  1.10     0.109 H 
BRANCH 108 110
ATOM    110  N   THR A   1      18.359  32.920  72.384  0.18  1.82     0.181 N 
ATOM    111  H2  THR A   1      18.606  31.959  72.522  0.19  0.60     0.193 HD
ATOM    112  H   THR A   1      18.665  33.215  71.477  0.19  0.60     0.193 HD
ATOM    113  H3  THR A   1      17.365  33.021  72.448  0.19  0.60     0.193 HD
ENDBRANCH 108 110
BRANCH 108 114
ATOM    114  CB  THR A   1      19.153  32.904  74.658  0.45  1.91     0.451 C 
ATOM    115  HB  THR A   1      19.805  32.139  74.474 -0.03  1.39    -0.032 H 
BRANCH 114 116
ATOM    116  CG2 THR A   1      19.601  33.770  75.852 -0.26  1.91    -0.255 C 
ATOM    117 2HG2 THR A   1      19.818  33.177  76.627  0.06  1.49     0.063 H 
ATOM    118 1HG2 THR A   1      20.411  34.295  75.593  0.06  1.49     0.063 H 
ATOM    119 3HG2 THR A   1      18.862  34.394  76.103  0.06  1.49     0.063 H 
ENDBRANCH 114 116
BRANCH 114 120
ATOM    120  OG1 THR A   1      17.891  32.341  74.982 -0.68  1.72    -0.676 OA
ATOM    121  HG1 THR A   1      17.321  32.244  74.156  0.41  0.00     0.407 HD
ENDBRANCH 114 120
ENDBRANCH 108 114
ENDBRANCH 106 108
ENDBRANCH 102 104
BRANCH 102 122
ATOM    122  CB  LYS A   2      23.408  34.832  74.823 -0.01  1.91    -0.009 C 
ATOM    123  HB2 LYS A   2      24.370  34.932  74.667  0.04  1.49     0.036 H 
ATOM    124  HB3 LYS A   2      23.002  35.636  75.211  0.04  1.49     0.036 H 
BRANCH 122 125
ATOM    125  CG  LYS A   2      23.195  33.667  75.793  0.02  1.91     0.019 C 
ATOM    126  HG2 LYS A   2      22.226  33.670  76.092  0.01  1.49     0.010 H 
ATOM    127  HG3 LYS A   2      23.354  32.799  75.295  0.01  1.49     0.010 H 
BRANCH 125 128
ATOM    128  CD  LYS A   2      24.086  33.689  77.029 -0.05  1.91    -0.048 C 
ATOM    129  HD2 LYS A   2      25.043  33.658  76.738  0.06  1.49     0.062 H 
ATOM    130  HD3 LYS A   2      23.919  34.536  77.534  0.06  1.49     0.062 H 
BRANCH 128 131
ATOM    131  CE  LYS A   2      23.834  32.510  77.975 -0.01  1.91    -0.014 C 
ATOM    132  HE2 LYS A   2      24.151  32.762  78.887  0.11  1.10     0.114 H 
ATOM    133  HE3 LYS A   2      22.853  32.325  77.998  0.11  1.10     0.114 H 
BRANCH 131 134
ATOM    134  NZ  LYS A   2      24.558  31.306  77.510 -0.39  1.82    -0.385 N 
ATOM    135  HZ2 LYS A   2      24.824  30.749  78.298  0.34  0.60     0.340 HD
ATOM    136  HZ1 LYS A   2      23.965  30.769  76.909  0.34  0.60     0.340 HD
ATOM    137  HZ3 LYS A   2      25.378  31.581  77.006  0.34  0.60     0.340 HD
ENDBRANCH 131 134
ENDBRANCH 128 131
ENDBRANCH 125 128
ENDBRANCH 122 125
ENDBRANCH 102 122
ENDBRANCH   1 102
TORSDOF 36
